867945
  -OEChem-02101610493D

 31 33  0     0  0  0  0  0  0999 V2000
   -6.7340   -1.1879   -0.0102 Cl  0  0  0  0  0  0  0  0  0  0  0  0
   -1.7113    3.1549    0.1547 S   0  0  0  0  0  0  0  0  0  0  0  0
    4.3986   -0.6700    1.1442 O   0  0  0  0  0  0  0  0  0  0  0  0
   -0.3841   -1.8139   -0.0165 O   0  0  0  0  0  0  0  0  0  0  0  0
    2.9169    1.5827   -0.1829 O   0  0  0  0  0  0  0  0  0  0  0  0
   -1.0285    0.4475    0.0096 N   0  0  0  0  0  0  0  0  0  0  0  0
    0.6804    2.1040   -0.0844 N   0  0  0  0  0  0  0  0  0  0  0  0
   -2.4157    0.0499    0.0048 C   0  0  0  0  0  0  0  0  0  0  0  0
    1.3309   -0.1904   -0.0166 C   0  0  0  0  0  0  0  0  0  0  0  0
   -0.0946   -0.6170    0.0073 C   0  0  0  0  0  0  0  0  0  0  0  0
   -0.6813    1.8245    0.0022 C   0  0  0  0  0  0  0  0  0  0  0  0
    1.7459    1.2238   -0.1069 C   0  0  0  0  0  0  0  0  0  0  0  0
    2.2888   -1.1278    0.0354 C   0  0  0  0  0  0  0  0  0  0  0  0
   -3.0712   -0.1420    1.2105 C   0  0  0  0  0  0  0  0  0  0  0  0
   -3.0657   -0.1324   -1.2054 C   0  0  0  0  0  0  0  0  0  0  0  0
    3.7374   -0.8756    0.0094 C   0  0  0  0  0  0  0  0  0  0  0  0
   -4.4121   -0.5265    1.2058 C   0  0  0  0  0  0  0  0  0  0  0  0
   -4.4066   -0.5167   -1.2101 C   0  0  0  0  0  0  0  0  0  0  0  0
   -5.0798   -0.7138   -0.0044 C   0  0  0  0  0  0  0  0  0  0  0  0
    4.4981   -0.8313   -1.0952 C   0  0  0  0  0  0  0  0  0  0  0  0
    5.8006   -0.5657   -0.6095 C   0  0  0  0  0  0  0  0  0  0  0  0
    5.6872   -0.4764    0.7584 C   0  0  0  0  0  0  0  0  0  0  0  0
    0.9252    3.0904   -0.1106 H   0  0  0  0  0  0  0  0  0  0  0  0
    2.0280   -2.1812    0.1021 H   0  0  0  0  0  0  0  0  0  0  0  0
   -2.5580    0.0004    2.1574 H   0  0  0  0  0  0  0  0  0  0  0  0
   -2.5480    0.0185   -2.1486 H   0  0  0  0  0  0  0  0  0  0  0  0
   -4.9238   -0.6766    2.1530 H   0  0  0  0  0  0  0  0  0  0  0  0
   -4.9139   -0.6591   -2.1608 H   0  0  0  0  0  0  0  0  0  0  0  0
    4.1964   -0.9658   -2.1243 H   0  0  0  0  0  0  0  0  0  0  0  0
    6.7085   -0.4531   -1.1844 H   0  0  0  0  0  0  0  0  0  0  0  0
    6.3911   -0.2899    1.5564 H   0  0  0  0  0  0  0  0  0  0  0  0
  1 19  1  0  0  0  0
  2 11  2  0  0  0  0
  3 16  1  0  0  0  0
  3 22  1  0  0  0  0
  4 10  2  0  0  0  0
  5 12  2  0  0  0  0
  6  8  1  0  0  0  0
  6 10  1  0  0  0  0
  6 11  1  0  0  0  0
  7 11  1  0  0  0  0
  7 12  1  0  0  0  0
  7 23  1  0  0  0  0
  8 14  2  0  0  0  0
  8 15  1  0  0  0  0
  9 10  1  0  0  0  0
  9 12  1  0  0  0  0
  9 13  2  0  0  0  0
 13 16  1  0  0  0  0
 13 24  1  0  0  0  0
 14 17  1  0  0  0  0
 14 25  1  0  0  0  0
 15 18  2  0  0  0  0
 15 26  1  0  0  0  0
 16 20  2  0  0  0  0
 17 19  2  0  0  0  0
 17 27  1  0  0  0  0
 18 19  1  0  0  0  0
 18 28  1  0  0  0  0
 20 21  1  0  0  0  0
 20 29  1  0  0  0  0
 21 22  2  0  0  0  0
 21 30  1  0  0  0  0
 22 31  1  0  0  0  0
M  END
> <PUBCHEM_COMPOUND_CID>
867945

> <PUBCHEM_CONFORMER_RMSD>
0.6

> <PUBCHEM_CONFORMER_DIVERSEORDER>
1
2

> <PUBCHEM_MMFF94_PARTIAL_CHARGES>
31
1 -0.18
10 0.62
11 0.5
12 0.62
13 -0.11
14 -0.15
15 -0.15
16 0.09
17 -0.15
18 -0.15
19 0.18
2 -0.38
20 -0.15
21 -0.15
22 -0.01
23 0.37
24 0.15
25 0.15
26 0.15
27 0.15
28 0.15
29 0.15
3 -0.28
30 0.15
31 0.15
4 -0.57
5 -0.57
6 -0.24
7 -0.49
8 0.12
9 0.03

> <PUBCHEM_EFFECTIVE_ROTOR_COUNT>
2.4

> <PUBCHEM_PHARMACOPHORE_FEATURES>
9
1 2 acceptor
1 3 acceptor
1 4 acceptor
1 5 acceptor
1 7 donor
1 9 anion
5 3 16 20 21 22 rings
6 6 7 9 10 11 12 rings
6 8 14 15 17 18 19 rings

> <PUBCHEM_HEAVY_ATOM_COUNT>
22

> <PUBCHEM_ATOM_DEF_STEREO_COUNT>
0

> <PUBCHEM_ATOM_UDEF_STEREO_COUNT>
0

> <PUBCHEM_BOND_DEF_STEREO_COUNT>
1

> <PUBCHEM_BOND_UDEF_STEREO_COUNT>
0

> <PUBCHEM_ISOTOPIC_ATOM_COUNT>
0

> <PUBCHEM_COMPONENT_COUNT>
1

> <PUBCHEM_CACTVS_TAUTO_COUNT>
3

> <PUBCHEM_CONFORMER_ID>
000D3E6900000001

> <PUBCHEM_MMFF94_ENERGY>
87.0488

> <PUBCHEM_FEATURE_SELFOVERLAP>
45.673

> <PUBCHEM_SHAPE_FINGERPRINT>
10366900 7 18261118460868418282
11796584 16 16660364779056816683
11963148 33 18409162229608452366
12107183 9 15478485269385304074
12166972 35 17821731667105270629
12236239 1 17775006821445788387
12516196 113 18413669123331898081
12553582 1 18412536609165123486
12596602 18 16630527340598668083
12788726 201 18335134237511955561
13140716 1 18266458887650100162
13685833 64 18408044035193484051
13862211 1 18409728456594500978
15183329 4 14634863124527547034
16087824 20 18194964042742250485
16752209 62 18335976472362265328
17349148 13 18260551108483736736
17492 89 18121496856736293242
1813 80 18272384056706132125
18222031 100 18413388743571912850
19141452 34 17703785955060714599
19489759 90 16153425039034199607
200 152 18408318874202836807
20028762 73 18201999975496322463
21033650 10 13985501354041875382
21236236 1 18339644421387850984
21267235 1 18411987961431601382
21641784 216 18041859323877793204
22182313 1 17915187814482149068
23175994 123 18260551156166551845
23402539 116 18341610395480593855
23536379 177 15502372309806158074
23557571 272 18059581235219437564
23559900 14 16660647414059363527
23569943 247 17771643251747029510
249057 3 18412258468312194975
25147074 1 18338253603603736957
26918003 58 18113901563359651115
283562 15 18338237050872871521
3004659 81 18113619005892919724
314173 85 18343586226402526665
329604 57 18113903762293333388
335352 9 18410292528298992087
34797466 226 15574721304395421887
350125 39 18411703162351196352
351380 3 18412544310030974662
465052 167 18411707611752348015
5104073 3 18270122456162134619
59682541 35 18270673273338996120
59755656 215 18409446956016908759
59755656 520 8790884069219498297
7495541 125 17603873333671198510
8863177 126 17897175834641063755

> <PUBCHEM_SHAPE_MULTIPOLES>
430.9
13.68
2.08
1.03
0.77
2.13
0.01
-7.37
0.1
-0.67
-0.01
-0.32
-0.18
-0.05

> <PUBCHEM_SHAPE_SELFOVERLAP>
929.436

> <PUBCHEM_SHAPE_VOLUME>
239

> <PUBCHEM_COORDINATE_TYPE>
2
5
10

$$$$
