1069448
  -OEChem-02101610503D

 38 41  0     0  0  0  0  0  0999 V2000
    1.4302    1.4944    0.0364 S   0  0  0  0  0  0  0  0  0  0  0  0
   -1.4317   -1.4944    0.0362 S   0  0  0  0  0  0  0  0  0  0  0  0
    7.7698   -0.2944    0.0353 O   0  0  0  0  0  0  0  0  0  0  0  0
   -7.7690    0.2944    0.0354 O   0  0  0  0  0  0  0  0  0  0  0  0
   -1.3873    1.1165    0.0365 N   0  0  0  0  0  0  0  0  0  0  0  0
    1.3857   -1.1165    0.0366 N   0  0  0  0  0  0  0  0  0  0  0  0
   -0.1005    0.6758    0.0366 C   0  0  0  0  0  0  0  0  0  0  0  0
    0.0990   -0.6757    0.0366 C   0  0  0  0  0  0  0  0  0  0  0  0
    2.1813   -0.0649    0.0366 C   0  0  0  0  0  0  0  0  0  0  0  0
   -2.1806    0.0649    0.0365 C   0  0  0  0  0  0  0  0  0  0  0  0
    3.6226   -0.1238    0.0367 C   0  0  0  0  0  0  0  0  0  0  0  0
   -3.6242    0.1239    0.0366 C   0  0  0  0  0  0  0  0  0  0  0  0
    4.2729   -1.2864    0.4500 C   0  0  0  0  0  0  0  0  0  0  0  0
   -4.2720    1.2864    0.4499 C   0  0  0  0  0  0  0  0  0  0  0  0
    4.3659    0.9817   -0.3770 C   0  0  0  0  0  0  0  0  0  0  0  0
   -4.3651   -0.9818   -0.3771 C   0  0  0  0  0  0  0  0  0  0  0  0
    6.4100   -0.2381    0.0361 C   0  0  0  0  0  0  0  0  0  0  0  0
   -6.4093    0.2382    0.0361 C   0  0  0  0  0  0  0  0  0  0  0  0
    5.6665   -1.3436    0.4499 C   0  0  0  0  0  0  0  0  0  0  0  0
   -5.6657    1.3435    0.4499 C   0  0  0  0  0  0  0  0  0  0  0  0
    5.7597    0.9246   -0.3773 C   0  0  0  0  0  0  0  0  0  0  0  0
   -5.7589   -0.9246   -0.3772 C   0  0  0  0  0  0  0  0  0  0  0  0
    8.4679    0.8715   -0.3997 C   0  0  0  0  0  0  0  0  0  0  0  0
   -8.4671   -0.8715   -0.3996 C   0  0  0  0  0  0  0  0  0  0  0  0
    3.7156   -2.1600    0.7798 H   0  0  0  0  0  0  0  0  0  0  0  0
   -3.7146    2.1597    0.7796 H   0  0  0  0  0  0  0  0  0  0  0  0
    3.9234    1.9054   -0.7372 H   0  0  0  0  0  0  0  0  0  0  0  0
   -3.9227   -1.9053   -0.7375 H   0  0  0  0  0  0  0  0  0  0  0  0
    6.1678   -2.2518    0.7736 H   0  0  0  0  0  0  0  0  0  0  0  0
   -6.1669    2.2517    0.7736 H   0  0  0  0  0  0  0  0  0  0  0  0
    6.2759    1.8162   -0.7165 H   0  0  0  0  0  0  0  0  0  0  0  0
   -6.2753   -1.8162   -0.7163 H   0  0  0  0  0  0  0  0  0  0  0  0
    8.2766    1.7247    0.2600 H   0  0  0  0  0  0  0  0  0  0  0  0
    8.2526    1.1013   -1.4488 H   0  0  0  0  0  0  0  0  0  0  0  0
    9.5383    0.6505   -0.3342 H   0  0  0  0  0  0  0  0  0  0  0  0
   -8.2518   -1.1013   -1.4487 H   0  0  0  0  0  0  0  0  0  0  0  0
   -9.5375   -0.6505   -0.3341 H   0  0  0  0  0  0  0  0  0  0  0  0
   -8.2759   -1.7247    0.2600 H   0  0  0  0  0  0  0  0  0  0  0  0
  1  7  1  0  0  0  0
  1  9  1  0  0  0  0
  2  8  1  0  0  0  0
  2 10  1  0  0  0  0
  3 17  1  0  0  0  0
  3 23  1  0  0  0  0
  4 18  1  0  0  0  0
  4 24  1  0  0  0  0
  5  7  1  0  0  0  0
  5 10  2  0  0  0  0
  6  8  1  0  0  0  0
  6  9  2  0  0  0  0
  7  8  2  0  0  0  0
  9 11  1  0  0  0  0
 10 12  1  0  0  0  0
 11 13  2  0  0  0  0
 11 15  1  0  0  0  0
 12 14  2  0  0  0  0
 12 16  1  0  0  0  0
 13 19  1  0  0  0  0
 13 25  1  0  0  0  0
 14 20  1  0  0  0  0
 14 26  1  0  0  0  0
 15 21  2  0  0  0  0
 15 27  1  0  0  0  0
 16 22  2  0  0  0  0
 16 28  1  0  0  0  0
 17 19  2  0  0  0  0
 17 21  1  0  0  0  0
 18 20  2  0  0  0  0
 18 22  1  0  0  0  0
 19 29  1  0  0  0  0
 20 30  1  0  0  0  0
 21 31  1  0  0  0  0
 22 32  1  0  0  0  0
 23 33  1  0  0  0  0
 23 34  1  0  0  0  0
 23 35  1  0  0  0  0
 24 36  1  0  0  0  0
 24 37  1  0  0  0  0
 24 38  1  0  0  0  0
M  END
> <PUBCHEM_COMPOUND_CID>
1069448

> <PUBCHEM_CONFORMER_RMSD>
0.8

> <PUBCHEM_CONFORMER_DIVERSEORDER>
1

> <PUBCHEM_MMFF94_PARTIAL_CHARGES>
32
1 -0.11
10 0.33
11 0.05
12 0.05
13 -0.15
14 -0.15
15 -0.15
16 -0.15
17 0.08
18 0.08
19 -0.15
2 -0.11
20 -0.15
21 -0.15
22 -0.15
23 0.28
24 0.28
25 0.15
26 0.15
27 0.15
28 0.15
29 0.15
3 -0.36
30 0.15
31 0.15
32 0.15
4 -0.36
5 -0.64
6 -0.64
7 0.37
8 0.37
9 0.33

> <PUBCHEM_EFFECTIVE_ROTOR_COUNT>
4

> <PUBCHEM_PHARMACOPHORE_FEATURES>
8
1 3 acceptor
1 4 acceptor
1 5 acceptor
1 6 acceptor
5 1 6 7 8 9 rings
5 2 5 7 8 10 rings
6 11 13 15 17 19 21 rings
6 12 14 16 18 20 22 rings

> <PUBCHEM_HEAVY_ATOM_COUNT>
24

> <PUBCHEM_ATOM_DEF_STEREO_COUNT>
0

> <PUBCHEM_ATOM_UDEF_STEREO_COUNT>
0

> <PUBCHEM_BOND_DEF_STEREO_COUNT>
0

> <PUBCHEM_BOND_UDEF_STEREO_COUNT>
0

> <PUBCHEM_ISOTOPIC_ATOM_COUNT>
0

> <PUBCHEM_COMPONENT_COUNT>
1

> <PUBCHEM_CACTVS_TAUTO_COUNT>
1

> <PUBCHEM_CONFORMER_ID>
0010518800000001

> <PUBCHEM_MMFF94_ENERGY>
76.4414

> <PUBCHEM_FEATURE_SELFOVERLAP>
40.782

> <PUBCHEM_SHAPE_FINGERPRINT>
10050765 1 18053660562313513616
10299344 5 18411138034616506727
10595046 47 18338798918362509416
11315181 36 18413672409910404977
11524674 6 16272205310738210391
11719270 70 18060136509824221286
12089408 11 18413389825840250931
12091667 2 18343585144650880371
12166972 35 18343864441879433489
12236239 1 18410573976561516568
12516196 113 18201998824407494416
13533116 47 17385996227441803922
14123256 10 18410575088958046247
14170010 4 18259984898761336484
14251764 18 18410856559639789603
14251764 46 18409449189061766095
14849402 71 18341334495382970593
14933364 13 18411700980359499728
15183329 4 18410575080368111883
15461852 350 17060047152270743245
15840311 113 18334580175233733628
15849732 13 18334576849583412959
16120349 18 18114181977796347308
18006028 8 18060699489625810721
18681886 176 18272925055571917641
20281389 69 18333448737752938893
21150785 3 18410855473013063681
21267235 1 18413109485673844809
21315763 28 18411699876542517545
22224240 67 15791733018381556898
23035841 295 18343582941395993507
232437 2 18412545401923215662
23402539 116 18272366469025869381
23521765 1 18341895194640646149
23522609 53 18194429781751159253
23536379 177 18410573967971582192
23559900 14 18270110353239823169
255183 451 18124320407640508478
3004659 81 18335421258066846264
335352 9 18410855490192933229
33684 2 18410573985151457638
34797466 226 16558753438020039688
350125 39 18411135818419254416
4073 2 17968100884304553306
4325135 7 18410856563934757212
4340502 62 16153708713118614506
4463277 17 18410292501695751104
5758199 1 18334859407039802434
59755656 520 17967809475263957795
67123 10 18410855477308030999
8209 1 18410573989446418444

> <PUBCHEM_SHAPE_MULTIPOLES>
479.91
24.65
1.49
0.68
0.02
0
0
0
1.86
0
-0.07
0
0
-1.07

> <PUBCHEM_SHAPE_SELFOVERLAP>
1041.36

> <PUBCHEM_SHAPE_VOLUME>
266.2

> <PUBCHEM_COORDINATE_TYPE>
2
5
10

$$$$
