5348178
  -OEChem-02101610513D

 32 33  0     0  0  0  0  0  0999 V2000
   -4.2073   -2.7432    0.5512 Cl  0  0  0  0  0  0  0  0  0  0  0  0
    4.0171   -2.6580   -0.5913 O   0  0  0  0  0  0  0  0  0  0  0  0
    5.5995    1.6612    0.7406 O   0  0  0  0  0  0  0  0  0  0  0  0
    6.1005   -1.0034    0.1783 O   0  0  0  0  0  0  0  0  0  0  0  0
    0.6668    2.2243   -0.4604 O   0  0  0  0  0  0  0  0  0  0  0  0
   -0.1311    0.1126   -0.0491 N   0  0  0  0  0  0  0  0  0  0  0  0
   -1.4134    0.5465   -0.1120 N   0  0  0  0  0  0  0  0  0  0  0  0
    2.2575    0.4988   -0.1287 C   0  0  0  0  0  0  0  0  0  0  0  0
    3.2898    1.3408    0.2577 C   0  0  0  0  0  0  0  0  0  0  0  0
    2.4915   -0.8384   -0.4135 C   0  0  0  0  0  0  0  0  0  0  0  0
    3.7870   -1.3451   -0.3098 C   0  0  0  0  0  0  0  0  0  0  0  0
    4.5853    0.8343    0.3613 C   0  0  0  0  0  0  0  0  0  0  0  0
    4.8340   -0.5087    0.0777 C   0  0  0  0  0  0  0  0  0  0  0  0
    0.8922    1.0329   -0.2384 C   0  0  0  0  0  0  0  0  0  0  0  0
   -3.7206   -0.1064    0.0463 C   0  0  0  0  0  0  0  0  0  0  0  0
   -4.6710   -1.1068    0.2507 C   0  0  0  0  0  0  0  0  0  0  0  0
   -4.1297    1.2052   -0.1944 C   0  0  0  0  0  0  0  0  0  0  0  0
   -2.2897   -0.3837    0.0770 C   0  0  0  0  0  0  0  0  0  0  0  0
   -6.0303   -0.7956    0.2143 C   0  0  0  0  0  0  0  0  0  0  0  0
   -5.4890    1.5164   -0.2308 C   0  0  0  0  0  0  0  0  0  0  0  0
   -6.4392    0.5161   -0.0265 C   0  0  0  0  0  0  0  0  0  0  0  0
    3.0982    2.3869    0.4831 H   0  0  0  0  0  0  0  0  0  0  0  0
    1.7078   -1.5108   -0.7497 H   0  0  0  0  0  0  0  0  0  0  0  0
   -3.4190    2.0110   -0.3578 H   0  0  0  0  0  0  0  0  0  0  0  0
    0.0209   -0.8619    0.1884 H   0  0  0  0  0  0  0  0  0  0  0  0
   -1.9632   -1.4201    0.2663 H   0  0  0  0  0  0  0  0  0  0  0  0
   -6.7836   -1.5634    0.3714 H   0  0  0  0  0  0  0  0  0  0  0  0
   -5.8079    2.5376   -0.4182 H   0  0  0  0  0  0  0  0  0  0  0  0
   -7.4975    0.7587   -0.0550 H   0  0  0  0  0  0  0  0  0  0  0  0
    4.9659   -2.8354   -0.4684 H   0  0  0  0  0  0  0  0  0  0  0  0
    5.2417    2.5523    0.8949 H   0  0  0  0  0  0  0  0  0  0  0  0
    6.6907   -0.2819    0.4575 H   0  0  0  0  0  0  0  0  0  0  0  0
  1 16  1  0  0  0  0
  2 11  1  0  0  0  0
  2 30  1  0  0  0  0
  3 12  1  0  0  0  0
  3 31  1  0  0  0  0
  4 13  1  0  0  0  0
  4 32  1  0  0  0  0
  5 14  2  0  0  0  0
  6  7  1  0  0  0  0
  6 14  1  0  0  0  0
  6 25  1  0  0  0  0
  7 18  2  0  0  0  0
  8  9  2  0  0  0  0
  8 10  1  0  0  0  0
  8 14  1  0  0  0  0
  9 12  1  0  0  0  0
  9 22  1  0  0  0  0
 10 11  2  0  0  0  0
 10 23  1  0  0  0  0
 11 13  1  0  0  0  0
 12 13  2  0  0  0  0
 15 16  1  0  0  0  0
 15 17  2  0  0  0  0
 15 18  1  0  0  0  0
 16 19  2  0  0  0  0
 17 20  1  0  0  0  0
 17 24  1  0  0  0  0
 18 26  1  0  0  0  0
 19 21  1  0  0  0  0
 19 27  1  0  0  0  0
 20 21  2  0  0  0  0
 20 28  1  0  0  0  0
 21 29  1  0  0  0  0
M  END
> <PUBCHEM_COMPOUND_CID>
5348178

> <PUBCHEM_CONFORMER_RMSD>
0.6

> <PUBCHEM_CONFORMER_DIVERSEORDER>
2
6
12
7
1
9
13
10
8
3
5
4
11

> <PUBCHEM_MMFF94_PARTIAL_CHARGES>
32
1 -0.18
10 -0.15
11 0.08
12 0.08
13 0.08
14 0.54
15 0.09
16 0.18
17 -0.15
18 0.3
19 -0.15
2 -0.53
20 -0.15
21 -0.15
22 0.15
23 0.15
24 0.15
25 0.37
26 0.06
27 0.15
28 0.15
29 0.15
3 -0.53
30 0.45
31 0.45
32 0.45
4 -0.53
5 -0.57
6 -0.37
7 -0.51
8 0.09
9 -0.15

> <PUBCHEM_EFFECTIVE_ROTOR_COUNT>
4

> <PUBCHEM_PHARMACOPHORE_FEATURES>
8
1 2 donor
1 3 donor
1 4 donor
1 5 acceptor
1 6 donor
1 7 acceptor
6 15 16 17 19 20 21 rings
6 8 9 10 11 12 13 rings

> <PUBCHEM_HEAVY_ATOM_COUNT>
21

> <PUBCHEM_ATOM_DEF_STEREO_COUNT>
0

> <PUBCHEM_ATOM_UDEF_STEREO_COUNT>
0

> <PUBCHEM_BOND_DEF_STEREO_COUNT>
1

> <PUBCHEM_BOND_UDEF_STEREO_COUNT>
0

> <PUBCHEM_ISOTOPIC_ATOM_COUNT>
0

> <PUBCHEM_COMPONENT_COUNT>
1

> <PUBCHEM_CACTVS_TAUTO_COUNT>
25

> <PUBCHEM_CONFORMER_ID>
00519B5200000002

> <PUBCHEM_MMFF94_ENERGY>
57.4037

> <PUBCHEM_FEATURE_SELFOVERLAP>
40.613

> <PUBCHEM_SHAPE_FINGERPRINT>
10835480 77 18412820300588039201
11315181 36 17917713513662332489
12107183 9 17624143697922641969
12236239 1 17846497041165445013
12516196 113 18344144795621382825
12596602 18 17489590099085257611
13073987 5 18343024367877291905
13167823 11 18408885165841547291
13533116 47 17989487390165201498
13583140 156 17988639765774337433
13685833 64 18335706048462949395
14251764 18 18272937142053025841
14341114 176 18410580587096550761
14933364 13 18411420613600577889
15183329 4 18187079529876606147
15196674 1 18410575101943480231
15348495 7 18341890852555401969
15475509 35 17459730572849497130
15788980 27 18187368739925866849
17492 89 17972887135998717899
17844677 252 18410581682034078105
17857418 61 18411135857553663735
1813 80 17095243609532136365
19141452 34 18408323306851906975
19427546 62 18338797952844167600
20645477 70 18342740672138790590
21065198 57 18411139181984873349
21267235 1 18271248227720818814
21279426 13 18265332807502070925
21623969 137 18202285805331883470
220451 1 17846500356990883023
22224240 67 17346307203448219662
23402539 116 18413384354838120493
23536379 177 18412262822564812761
23559900 14 18339073904377320121
239999 70 18408887326489678506
26918003 58 18343584040533023009
300161 21 17775279486748301357
3004659 81 18187086139852347470
33824 294 18411417302761080338
338550 245 18262523705147966935
3545911 37 18410856564567928537
4073 2 18187931719617388843
4214541 1 18408886239773125941
465052 167 18201442441812457822
5104073 3 18412829079547938107
5283173 99 18336543811804509241
559249 180 18335417955268884483
59755656 215 18335702693740407687
67856867 119 18190182476039221429
9709674 26 18117003380377942459
9971528 1 18260269650418305564
9995097 60 18411981356082935119

> <PUBCHEM_SHAPE_MULTIPOLES>
400.6
17.45
2.25
0.69
4.04
0.98
0.02
1.65
1.5
0.04
-0.01
-0.14
0.03
1.25

> <PUBCHEM_SHAPE_SELFOVERLAP>
856.581

> <PUBCHEM_SHAPE_VOLUME>
222.3

> <PUBCHEM_COORDINATE_TYPE>
2
5
10

$$$$
