5352095
  -OEChem-02101610533D

 81 84  0     1  0  0  0  0  0999 V2000
   -3.4771   -1.6830    0.4883 O   0  0  0  0  0  0  0  0  0  0  0  0
   -1.9004   -0.1775    1.3841 O   0  0  0  0  0  0  0  0  0  0  0  0
    1.5492   -1.1043   -1.5094 O   0  0  0  0  0  0  0  0  0  0  0  0
   -1.9598   -3.4793    0.6408 O   0  0  0  0  0  0  0  0  0  0  0  0
   -3.4914   -0.5819    3.0095 O   0  0  0  0  0  0  0  0  0  0  0  0
    2.7831   -0.7693   -3.4235 O   0  0  0  0  0  0  0  0  0  0  0  0
   -3.9643   -4.3097    1.4339 O   0  0  0  0  0  0  0  0  0  0  0  0
    4.6305    0.1719    2.1337 O   0  0  0  0  0  0  0  0  0  0  0  0
    7.1353   -0.6457    1.2490 O   0  0  0  0  0  0  0  0  0  0  0  0
   -2.2476   -0.3348   -1.0450 C   0  0  1  0  0  0  0  0  0  0  0  0
   -1.0972    0.7009   -1.2788 C   0  0  2  0  0  0  0  0  0  0  0  0
   -1.6038    2.1916   -1.4543 C   0  0  1  0  0  0  0  0  0  0  0  0
   -2.7389    2.2557   -2.5301 C   0  0  1  0  0  0  0  0  0  0  0  0
   -3.3466   -0.1862   -2.1261 C   0  0  0  0  0  0  0  0  0  0  0  0
   -3.8630    1.2428   -2.2606 C   0  0  0  0  0  0  0  0  0  0  0  0
   -0.2295    0.2182   -2.4843 C   0  0  0  0  0  0  0  0  0  0  0  0
   -1.7441   -1.7610   -1.0731 C   0  0  0  0  0  0  0  0  0  0  0  0
   -2.8759   -0.3777    0.3659 C   0  0  1  0  0  0  0  0  0  0  0  0
   -2.0792    2.7565   -0.0930 C   0  0  0  0  0  0  0  0  0  0  0  0
    0.3513   -1.1883   -2.2821 C   0  0  2  0  0  0  0  0  0  0  0  0
   -0.4271    3.1060   -1.8871 C   0  0  0  0  0  0  0  0  0  0  0  0
   -2.6555   -2.6098   -0.2413 C   0  0  2  0  0  0  0  0  0  0  0  0
   -0.5792   -2.1444   -1.6091 C   0  0  0  0  0  0  0  0  0  0  0  0
   -3.3598    3.6483   -2.7135 C   0  0  0  0  0  0  0  0  0  0  0  0
   -0.9596    2.7452    0.8941 C   0  0  0  0  0  0  0  0  0  0  0  0
   -0.4441    3.7932    1.5701 C   0  0  0  0  0  0  0  0  0  0  0  0
   -2.3480   -0.3109    2.6682 C   0  0  0  0  0  0  0  0  0  0  0  0
    2.6929   -0.8920   -2.2119 C   0  0  0  0  0  0  0  0  0  0  0  0
   -2.7412   -4.2806    1.4274 C   0  0  0  0  0  0  0  0  0  0  0  0
   -0.9309    5.2100    1.4129 C   0  0  0  0  0  0  0  0  0  0  0  0
   -1.2199   -0.0748    3.6261 C   0  0  0  0  0  0  0  0  0  0  0  0
    0.6614    3.5546    2.4970 C   0  0  0  0  0  0  0  0  0  0  0  0
    3.8609   -0.8263   -1.2975 C   0  0  0  0  0  0  0  0  0  0  0  0
   -1.8765   -5.1388    2.3003 C   0  0  0  0  0  0  0  0  0  0  0  0
    1.2929    4.4669    3.2470 C   0  0  0  0  0  0  0  0  0  0  0  0
    3.7013   -0.3539    0.0052 C   0  0  0  0  0  0  0  0  0  0  0  0
    5.1180   -1.2361   -1.7418 C   0  0  0  0  0  0  0  0  0  0  0  0
    4.7988   -0.2915    0.8639 C   0  0  0  0  0  0  0  0  0  0  0  0
    6.2156   -1.1733   -0.8832 C   0  0  0  0  0  0  0  0  0  0  0  0
    6.0560   -0.7011    0.4197 C   0  0  0  0  0  0  0  0  0  0  0  0
    3.3135    0.5705    2.5090 C   0  0  0  0  0  0  0  0  0  0  0  0
   -0.3989    0.6389   -0.4403 H   0  0  0  0  0  0  0  0  0  0  0  0
   -2.2953    1.9914   -3.4999 H   0  0  0  0  0  0  0  0  0  0  0  0
   -4.2018   -0.8417   -1.9151 H   0  0  0  0  0  0  0  0  0  0  0  0
   -2.9655   -0.5120   -3.1029 H   0  0  0  0  0  0  0  0  0  0  0  0
   -4.5854    1.2723   -3.0863 H   0  0  0  0  0  0  0  0  0  0  0  0
   -4.4227    1.5241   -1.3612 H   0  0  0  0  0  0  0  0  0  0  0  0
   -0.8323    0.2220   -3.3994 H   0  0  0  0  0  0  0  0  0  0  0  0
    0.6010    0.9105   -2.6529 H   0  0  0  0  0  0  0  0  0  0  0  0
   -3.6829    0.3484    0.4912 H   0  0  0  0  0  0  0  0  0  0  0  0
   -2.9221    2.2067    0.3192 H   0  0  0  0  0  0  0  0  0  0  0  0
   -2.4662    3.7657   -0.2358 H   0  0  0  0  0  0  0  0  0  0  0  0
    0.5733   -1.6147   -3.2695 H   0  0  0  0  0  0  0  0  0  0  0  0
   -0.6574    4.1684   -1.7473 H   0  0  0  0  0  0  0  0  0  0  0  0
    0.4929    2.8938   -1.3306 H   0  0  0  0  0  0  0  0  0  0  0  0
   -0.1965    2.9786   -2.9511 H   0  0  0  0  0  0  0  0  0  0  0  0
   -3.3120   -3.1948   -0.8971 H   0  0  0  0  0  0  0  0  0  0  0  0
   -0.2602   -3.1797   -1.5247 H   0  0  0  0  0  0  0  0  0  0  0  0
   -4.0446    3.6434   -3.5696 H   0  0  0  0  0  0  0  0  0  0  0  0
   -2.6022    4.4099   -2.9168 H   0  0  0  0  0  0  0  0  0  0  0  0
   -3.9430    3.9588   -1.8413 H   0  0  0  0  0  0  0  0  0  0  0  0
   -0.5307    1.7807    1.1387 H   0  0  0  0  0  0  0  0  0  0  0  0
   -0.1172    5.8546    1.0615 H   0  0  0  0  0  0  0  0  0  0  0  0
   -1.7497    5.3361    0.7042 H   0  0  0  0  0  0  0  0  0  0  0  0
   -1.2908    5.5968    2.3731 H   0  0  0  0  0  0  0  0  0  0  0  0
   -1.0354    0.9971    3.7214 H   0  0  0  0  0  0  0  0  0  0  0  0
   -1.4857   -0.4846    4.6046 H   0  0  0  0  0  0  0  0  0  0  0  0
   -0.3187   -0.5887    3.2805 H   0  0  0  0  0  0  0  0  0  0  0  0
    0.9941    2.5242    2.5998 H   0  0  0  0  0  0  0  0  0  0  0  0
   -1.2675   -4.5073    2.9522 H   0  0  0  0  0  0  0  0  0  0  0  0
   -2.5097   -5.7760    2.9243 H   0  0  0  0  0  0  0  0  0  0  0  0
   -1.2425   -5.7774    1.6802 H   0  0  0  0  0  0  0  0  0  0  0  0
    2.0987    4.1600    3.9064 H   0  0  0  0  0  0  0  0  0  0  0  0
    1.0402    5.5206    3.2331 H   0  0  0  0  0  0  0  0  0  0  0  0
    2.7106   -0.0293    0.3035 H   0  0  0  0  0  0  0  0  0  0  0  0
    5.2582   -1.6091   -2.7529 H   0  0  0  0  0  0  0  0  0  0  0  0
    7.1893   -1.4963   -1.2419 H   0  0  0  0  0  0  0  0  0  0  0  0
    7.9186   -0.9686    0.7713 H   0  0  0  0  0  0  0  0  0  0  0  0
    2.9718    1.4202    1.9098 H   0  0  0  0  0  0  0  0  0  0  0  0
    2.6118   -0.2702    2.4838 H   0  0  0  0  0  0  0  0  0  0  0  0
    3.3628    0.9131    3.5479 H   0  0  0  0  0  0  0  0  0  0  0  0
  1 18  1  0  0  0  0
  1 22  1  0  0  0  0
  2 18  1  0  0  0  0
  2 27  1  0  0  0  0
  3 20  1  0  0  0  0
  3 28  1  0  0  0  0
  4 22  1  0  0  0  0
  4 29  1  0  0  0  0
  5 27  2  0  0  0  0
  6 28  2  0  0  0  0
  7 29  2  0  0  0  0
  8 38  1  0  0  0  0
  8 41  1  0  0  0  0
  9 40  1  0  0  0  0
  9 78  1  0  0  0  0
 10 11  1  0  0  0  0
 10 14  1  0  0  0  0
 10 17  1  0  0  0  0
 10 18  1  0  0  0  0
 11 12  1  0  0  0  0
 11 16  1  0  0  0  0
 11 42  1  0  0  0  0
 12 13  1  0  0  0  0
 12 19  1  0  0  0  0
 12 21  1  0  0  0  0
 13 15  1  0  0  0  0
 13 24  1  0  0  0  0
 13 43  1  0  0  0  0
 14 15  1  0  0  0  0
 14 44  1  0  0  0  0
 14 45  1  0  0  0  0
 15 46  1  0  0  0  0
 15 47  1  0  0  0  0
 16 20  1  0  0  0  0
 16 48  1  0  0  0  0
 16 49  1  0  0  0  0
 17 22  1  0  0  0  0
 17 23  2  0  0  0  0
 18 50  1  0  0  0  0
 19 25  1  0  0  0  0
 19 51  1  0  0  0  0
 19 52  1  0  0  0  0
 20 23  1  0  0  0  0
 20 53  1  0  0  0  0
 21 54  1  0  0  0  0
 21 55  1  0  0  0  0
 21 56  1  0  0  0  0
 22 57  1  0  0  0  0
 23 58  1  0  0  0  0
 24 59  1  0  0  0  0
 24 60  1  0  0  0  0
 24 61  1  0  0  0  0
 25 26  2  0  0  0  0
 25 62  1  0  0  0  0
 26 30  1  0  0  0  0
 26 32  1  0  0  0  0
 27 31  1  0  0  0  0
 28 33  1  0  0  0  0
 29 34  1  0  0  0  0
 30 63  1  0  0  0  0
 30 64  1  0  0  0  0
 30 65  1  0  0  0  0
 31 66  1  0  0  0  0
 31 67  1  0  0  0  0
 31 68  1  0  0  0  0
 32 35  2  0  0  0  0
 32 69  1  0  0  0  0
 33 36  2  0  0  0  0
 33 37  1  0  0  0  0
 34 70  1  0  0  0  0
 34 71  1  0  0  0  0
 34 72  1  0  0  0  0
 35 73  1  0  0  0  0
 35 74  1  0  0  0  0
 36 38  1  0  0  0  0
 36 75  1  0  0  0  0
 37 39  2  0  0  0  0
 37 76  1  0  0  0  0
 38 40  2  0  0  0  0
 39 40  1  0  0  0  0
 39 77  1  0  0  0  0
 41 79  1  0  0  0  0
 41 80  1  0  0  0  0
 41 81  1  0  0  0  0
M  END
> <PUBCHEM_COMPOUND_CID>
5352095

> <PUBCHEM_CONFORMER_RMSD>
1.2

> <PUBCHEM_CONFORMER_DIVERSEORDER>
1
8
7
3
5
4
6
9
2

> <PUBCHEM_MMFF94_PARTIAL_CHARGES>
42
1 -0.56
10 0.14
17 -0.28
18 0.56
19 0.14
2 -0.43
20 0.42
22 0.7
23 -0.29
25 -0.29
26 -0.14
27 0.66
28 0.63
29 0.66
3 -0.43
30 0.14
31 0.06
32 -0.15
33 0.09
34 0.06
35 -0.3
36 -0.15
37 -0.15
38 0.08
39 -0.15
4 -0.43
40 0.08
41 0.28
5 -0.57
58 0.15
6 -0.57
62 0.15
69 0.15
7 -0.57
73 0.15
74 0.15
75 0.15
76 0.15
77 0.15
78 0.45
8 -0.36
9 -0.53

> <PUBCHEM_EFFECTIVE_ROTOR_COUNT>
12.8

> <PUBCHEM_PHARMACOPHORE_FEATURES>
12
1 1 acceptor
1 30 hydrophobe
1 35 hydrophobe
1 5 acceptor
1 6 acceptor
1 7 acceptor
1 8 acceptor
1 9 donor
5 1 10 17 18 22 rings
6 10 11 12 13 14 15 rings
6 10 11 16 17 20 23 rings
6 33 36 37 38 39 40 rings

> <PUBCHEM_HEAVY_ATOM_COUNT>
41

> <PUBCHEM_ATOM_DEF_STEREO_COUNT>
7

> <PUBCHEM_ATOM_UDEF_STEREO_COUNT>
0

> <PUBCHEM_BOND_DEF_STEREO_COUNT>
1

> <PUBCHEM_BOND_UDEF_STEREO_COUNT>
0

> <PUBCHEM_ISOTOPIC_ATOM_COUNT>
0

> <PUBCHEM_COMPONENT_COUNT>
1

> <PUBCHEM_CACTVS_TAUTO_COUNT>
4

> <PUBCHEM_CONFORMER_ID>
0051AA9F00000001

> <PUBCHEM_MMFF94_ENERGY>
125.2005

> <PUBCHEM_FEATURE_SELFOVERLAP>
61.028

> <PUBCHEM_SHAPE_FINGERPRINT>
12156800 1 17170647103827271057
12608794 3 18336565866972685917
12786520 15 16056340361736570452
12788726 201 17914035522096594140
12977781 61 17614821334448593319
13383668 90 15034467564615663427
14705955 166 18127987312323272544
14844126 61 17894351089962721895
16993438 75 17630328524471521512
20764821 26 17845936209032327592
21033648 144 16987978576001037022
21795232 40 16265119082477160456
22956985 138 17469606673024912398
3380486 145 17917421077433295390
3383291 50 18186516592882433631
3493558 16 16752925804200016315
35225 105 18041854891133497425
4616759 239 18262221284702053978
469060 322 18337404789168945343
4742675 86 16916770856874397160
508706 21 17845087381850082580
56638632 33 17905064886072641075
7288768 16 17910684159110270412
9981440 41 17897444991413835095

> <PUBCHEM_SHAPE_MULTIPOLES>
790.94
10.06
6.21
4.19
22.71
1.34
1.23
-4.3
-0.81
-7.14
5.35
-1.36
1.16
4.6

> <PUBCHEM_SHAPE_SELFOVERLAP>
1678.339

> <PUBCHEM_SHAPE_VOLUME>
436.8

> <PUBCHEM_COORDINATE_TYPE>
2
5
10

$$$$
