278672
  -OEChem-02101610533D

 58 62  0     0  0  0  0  0  0999 V2000
    7.3508   -0.9745    0.3625 S   0  0  0  0  0  0  0  0  0  0  0  0
   -4.1571    0.5295    0.5840 O   0  0  0  0  0  0  0  0  0  0  0  0
    0.4502    2.9917   -0.5370 O   0  0  0  0  0  0  0  0  0  0  0  0
    7.9997    0.2222    1.2680 O   0  0  0  0  0  0  0  0  0  0  0  0
    7.3004   -2.1624    1.2024 O   0  0  0  0  0  0  0  0  0  0  0  0
    8.0438   -0.9992   -0.9163 O   0  0  0  0  0  0  0  0  0  0  0  0
   -3.0787   -1.8442    0.4540 N   0  0  0  0  0  0  0  0  0  0  0  0
    1.7635    0.7441   -0.7270 N   0  0  0  0  0  0  0  0  0  0  0  0
   -3.1158   -3.2925    0.5273 C   0  0  0  0  0  0  0  0  0  0  0  0
   -4.3210   -3.7465    1.3570 C   0  0  0  0  0  0  0  0  0  0  0  0
   -3.1467   -3.8902   -0.8829 C   0  0  0  0  0  0  0  0  0  0  0  0
   -5.6520   -3.5207    0.6397 C   0  0  0  0  0  0  0  0  0  0  0  0
   -4.4820   -3.6637   -1.5923 C   0  0  0  0  0  0  0  0  0  0  0  0
   -5.6571   -4.1497   -0.7499 C   0  0  0  0  0  0  0  0  0  0  0  0
   -1.8982   -1.1225    0.1624 C   0  0  0  0  0  0  0  0  0  0  0  0
   -1.8530    0.2749    0.0897 C   0  0  0  0  0  0  0  0  0  0  0  0
   -0.6490    0.9185   -0.2040 C   0  0  0  0  0  0  0  0  0  0  0  0
   -0.7411   -1.8699   -0.0586 C   0  0  0  0  0  0  0  0  0  0  0  0
    0.5098    0.1645   -0.4253 C   0  0  0  0  0  0  0  0  0  0  0  0
   -3.0833    1.0581    0.3246 C   0  0  0  0  0  0  0  0  0  0  0  0
    0.4602   -1.2278   -0.3518 C   0  0  0  0  0  0  0  0  0  0  0  0
   -0.5869    2.3922   -0.2833 C   0  0  0  0  0  0  0  0  0  0  0  0
   -3.0214    2.5319    0.2451 C   0  0  0  0  0  0  0  0  0  0  0  0
   -1.8171    3.1754   -0.0480 C   0  0  0  0  0  0  0  0  0  0  0  0
   -4.1803    3.2857    0.4656 C   0  0  0  0  0  0  0  0  0  0  0  0
   -1.7719    4.5728   -0.1209 C   0  0  0  0  0  0  0  0  0  0  0  0
    3.0850    0.3385   -0.4691 C   0  0  0  0  0  0  0  0  0  0  0  0
   -4.1307    4.6783    0.3923 C   0  0  0  0  0  0  0  0  0  0  0  0
   -2.9291    5.3204    0.0997 C   0  0  0  0  0  0  0  0  0  0  0  0
    4.1128    0.6962   -1.3451 C   0  0  0  0  0  0  0  0  0  0  0  0
    3.3759   -0.4251    0.6641 C   0  0  0  0  0  0  0  0  0  0  0  0
    5.7104   -0.4697    0.0428 C   0  0  0  0  0  0  0  0  0  0  0  0
    5.4233    0.2925   -1.0896 C   0  0  0  0  0  0  0  0  0  0  0  0
    4.6865   -0.8287    0.9197 C   0  0  0  0  0  0  0  0  0  0  0  0
   -2.2450   -3.6697    1.0764 H   0  0  0  0  0  0  0  0  0  0  0  0
   -4.3377   -3.2259    2.3224 H   0  0  0  0  0  0  0  0  0  0  0  0
   -4.2195   -4.8173    1.5764 H   0  0  0  0  0  0  0  0  0  0  0  0
   -2.9764   -4.9720   -0.8051 H   0  0  0  0  0  0  0  0  0  0  0  0
   -2.3470   -3.5003   -1.5205 H   0  0  0  0  0  0  0  0  0  0  0  0
   -5.8595   -2.4474    0.5573 H   0  0  0  0  0  0  0  0  0  0  0  0
   -6.4643   -3.9503    1.2372 H   0  0  0  0  0  0  0  0  0  0  0  0
   -4.4793   -4.1895   -2.5539 H   0  0  0  0  0  0  0  0  0  0  0  0
   -4.6068   -2.5971   -1.8152 H   0  0  0  0  0  0  0  0  0  0  0  0
   -5.6111   -5.2416   -0.6559 H   0  0  0  0  0  0  0  0  0  0  0  0
   -6.5985   -3.9130   -1.2585 H   0  0  0  0  0  0  0  0  0  0  0  0
   -3.9438   -1.3255    0.5337 H   0  0  0  0  0  0  0  0  0  0  0  0
   -0.6946   -2.9520   -0.0236 H   0  0  0  0  0  0  0  0  0  0  0  0
    1.3322   -1.8461   -0.5478 H   0  0  0  0  0  0  0  0  0  0  0  0
    1.6977    1.5975   -1.2736 H   0  0  0  0  0  0  0  0  0  0  0  0
   -5.1306    2.8115    0.6955 H   0  0  0  0  0  0  0  0  0  0  0  0
   -0.8489    5.0997   -0.3473 H   0  0  0  0  0  0  0  0  0  0  0  0
   -5.0301    5.2626    0.5636 H   0  0  0  0  0  0  0  0  0  0  0  0
   -2.8933    6.4045    0.0431 H   0  0  0  0  0  0  0  0  0  0  0  0
    3.9026    1.2908   -2.2307 H   0  0  0  0  0  0  0  0  0  0  0  0
    2.6048   -0.6967    1.3801 H   0  0  0  0  0  0  0  0  0  0  0  0
    6.2049    0.5905   -1.7828 H   0  0  0  0  0  0  0  0  0  0  0  0
    4.8889   -1.4110    1.8142 H   0  0  0  0  0  0  0  0  0  0  0  0
    7.5639    0.3770    2.1390 H   0  0  0  0  0  0  0  0  0  0  0  0
  1  4  1  0  0  0  0
  1  5  2  0  0  0  0
  1  6  2  0  0  0  0
  1 32  1  0  0  0  0
  2 20  2  0  0  0  0
  3 22  2  0  0  0  0
  4 58  1  0  0  0  0
  7  9  1  0  0  0  0
  7 15  1  0  0  0  0
  7 46  1  0  0  0  0
  8 19  1  0  0  0  0
  8 27  1  0  0  0  0
  8 49  1  0  0  0  0
  9 10  1  0  0  0  0
  9 11  1  0  0  0  0
  9 35  1  0  0  0  0
 10 12  1  0  0  0  0
 10 36  1  0  0  0  0
 10 37  1  0  0  0  0
 11 13  1  0  0  0  0
 11 38  1  0  0  0  0
 11 39  1  0  0  0  0
 12 14  1  0  0  0  0
 12 40  1  0  0  0  0
 12 41  1  0  0  0  0
 13 14  1  0  0  0  0
 13 42  1  0  0  0  0
 13 43  1  0  0  0  0
 14 44  1  0  0  0  0
 14 45  1  0  0  0  0
 15 16  2  0  0  0  0
 15 18  1  0  0  0  0
 16 17  1  0  0  0  0
 16 20  1  0  0  0  0
 17 19  2  0  0  0  0
 17 22  1  0  0  0  0
 18 21  2  0  0  0  0
 18 47  1  0  0  0  0
 19 21  1  0  0  0  0
 20 23  1  0  0  0  0
 21 48  1  0  0  0  0
 22 24  1  0  0  0  0
 23 24  1  0  0  0  0
 23 25  2  0  0  0  0
 24 26  2  0  0  0  0
 25 28  1  0  0  0  0
 25 50  1  0  0  0  0
 26 29  1  0  0  0  0
 26 51  1  0  0  0  0
 27 30  2  0  0  0  0
 27 31  1  0  0  0  0
 28 29  2  0  0  0  0
 28 52  1  0  0  0  0
 29 53  1  0  0  0  0
 30 33  1  0  0  0  0
 30 54  1  0  0  0  0
 31 34  2  0  0  0  0
 31 55  1  0  0  0  0
 32 33  2  0  0  0  0
 32 34  1  0  0  0  0
 33 56  1  0  0  0  0
 34 57  1  0  0  0  0
M  END
> <PUBCHEM_COMPOUND_CID>
278672

> <PUBCHEM_CONFORMER_RMSD>
1

> <PUBCHEM_CONFORMER_DIVERSEORDER>
2
9
7
5
4
10
6
3
12
8
11
13
1

> <PUBCHEM_MMFF94_PARTIAL_CHARGES>
42
1 1.49
15 0.1
16 0.09
17 0.09
18 -0.15
19 0.1
2 -0.57
20 0.4
21 -0.15
22 0.4
23 0.09
24 0.09
25 -0.15
26 -0.15
27 0.1
28 -0.15
29 -0.15
3 -0.57
30 -0.15
31 -0.15
32 -0.01
33 -0.15
34 -0.15
4 -0.68
46 0.4
47 0.15
48 0.15
49 0.4
5 -0.65
50 0.15
51 0.15
52 0.15
53 0.15
54 0.15
55 0.15
56 0.15
57 0.15
58 0.5
6 -0.65
7 -0.87
8 -0.6
9 0.37

> <PUBCHEM_EFFECTIVE_ROTOR_COUNT>
6.2

> <PUBCHEM_PHARMACOPHORE_FEATURES>
15
1 2 acceptor
1 3 acceptor
1 4 acceptor
1 5 acceptor
1 6 acceptor
1 7 cation
1 7 donor
1 8 cation
1 8 donor
4 1 4 5 6 anion
6 15 16 17 18 19 21 rings
6 16 17 20 22 23 24 rings
6 23 24 25 26 28 29 rings
6 27 30 31 32 33 34 rings
6 9 10 11 12 13 14 rings

> <PUBCHEM_HEAVY_ATOM_COUNT>
34

> <PUBCHEM_ATOM_DEF_STEREO_COUNT>
0

> <PUBCHEM_ATOM_UDEF_STEREO_COUNT>
0

> <PUBCHEM_BOND_DEF_STEREO_COUNT>
0

> <PUBCHEM_BOND_UDEF_STEREO_COUNT>
0

> <PUBCHEM_ISOTOPIC_ATOM_COUNT>
0

> <PUBCHEM_COMPONENT_COUNT>
1

> <PUBCHEM_CACTVS_TAUTO_COUNT>
9

> <PUBCHEM_CONFORMER_ID>
0004409000000002

> <PUBCHEM_MMFF94_ENERGY>
114.0687

> <PUBCHEM_FEATURE_SELFOVERLAP>
76.221

> <PUBCHEM_SHAPE_FINGERPRINT>
10050765 1 18410577323207022012
10290309 65 17906178343712356505
10319926 262 18341040844975030168
10411042 1 18266743678600084359
10622 236 18260267499087712862
1100329 8 18337679719638902569
11136131 41 17331958829908626161
11297750 10 18200583830125578721
12107183 9 17901381196134334074
12236239 1 17895764985366155700
12760667 363 18264205975371832919
12788726 201 18262529215633114466
12988421 55 17983025449029365225
13140716 1 18338243785904058209
13248334 5 17474388453742466253
13540713 5 18042140863611354868
13590594 115 18267029547554913027
13757389 114 18338240345234548365
13782708 43 17917709137033122606
138480 1 16319502637389781757
14068700 675 18265892634819439887
14347332 77 18410576218988671606
14844126 61 18335709321291657809
14866123 147 18409170995920241251
15042514 8 18410579508938323231
15131766 46 15649910371994657652
15230672 131 18049163268569435638
15347591 1 18411981339905275298
15400415 2 17833834863439757476
15439362 3 17908987599593513670
15876981 60 18334019410062625956
15927050 60 18194120707319599914
16087824 20 18411139114119867525
16992752 21 18265625445330853654
17686467 74 18264483053066436528
19301679 30 18409739477317760250
21130935 74 18336822010681256482
21639891 77 18202281407369788488
21703447 108 18196363939211178040
22311459 1 18410578349318759013
23536364 44 18263629806004518727
23559900 14 17904479963272261643
23929065 36 18341036484654712224
255183 313 18198926755160968217
3103668 31 18408600380125423677
3504750 166 18116703037926404922
397830 11 18060129990907209178
4073 2 18338237060433568042
4144715 1 18270685264988452000
4409770 3 18335701607825805685
5028188 123 18336555933430989622
5080951 261 18059845165017484431
513202 73 18343305893871949038
563151 97 17904469715739061909
5969126 39 18341608269609387247
6058803 2 18186807946494726564
6691757 9 18268994189343527177
6695519 79 17694249685304150657
6697151 62 17977927305933023935
6698420 124 17699581242133775768
6700243 42 17841750470927505324
9896288 288 18338521845996913355
9981440 41 18047762490402072425

> <PUBCHEM_SHAPE_MULTIPOLES>
664.24
17.24
7.17
1.09
41.42
4.74
-0.07
-13.83
2.48
-18.54
0
0.41
-0.73
-1.55

> <PUBCHEM_SHAPE_SELFOVERLAP>
1458.416

> <PUBCHEM_SHAPE_VOLUME>
358.3

> <PUBCHEM_COORDINATE_TYPE>
2
5
10

$$$$
