1921495
  -OEChem-02101610513D

 59 63  0     0  0  0  0  0  0999 V2000
   -5.6145   -1.9216    1.4596 S   0  0  0  0  0  0  0  0  0  0  0  0
    2.4830    0.0941    0.0106 O   0  0  0  0  0  0  0  0  0  0  0  0
   -1.3017    0.3687   -0.1633 O   0  0  0  0  0  0  0  0  0  0  0  0
   -4.6640    2.8448    2.0782 O   0  0  0  0  0  0  0  0  0  0  0  0
   -1.5334   -5.4354   -1.8443 O   0  0  0  0  0  0  0  0  0  0  0  0
    1.4320    2.6138    0.3525 N   0  0  0  0  0  0  0  0  0  0  0  0
   -3.2838   -0.6978    0.5173 N   0  0  0  0  0  0  0  0  0  0  0  0
   -4.9360    0.6064    1.6319 N   0  0  0  0  0  0  0  0  0  0  0  0
    4.5714    0.7620    0.8517 N   0  0  0  0  0  0  0  0  0  0  0  0
    1.0085    3.0336   -0.8885 C   0  0  0  0  0  0  0  0  0  0  0  0
   -0.3823    3.1457   -0.8318 C   0  0  0  0  0  0  0  0  0  0  0  0
   -0.7776    2.7788    0.4850 C   0  0  0  0  0  0  0  0  0  0  0  0
    0.3598    2.4569    1.1892 C   0  0  0  0  0  0  0  0  0  0  0  0
    2.8061    2.3677    0.7334 C   0  0  0  0  0  0  0  0  0  0  0  0
   -2.0840    2.7365    1.0197 C   0  0  0  0  0  0  0  0  0  0  0  0
    1.7429    3.3198   -2.0449 C   0  0  0  0  0  0  0  0  0  0  0  0
   -1.0765    3.5638   -1.9845 C   0  0  0  0  0  0  0  0  0  0  0  0
   -2.8845    1.6602    1.0215 C   0  0  0  0  0  0  0  0  0  0  0  0
    1.0328    3.7327   -3.1759 C   0  0  0  0  0  0  0  0  0  0  0  0
   -0.3552    3.8535   -3.1484 C   0  0  0  0  0  0  0  0  0  0  0  0
    3.2415    0.9364    0.4793 C   0  0  0  0  0  0  0  0  0  0  0  0
   -2.3904    0.3957    0.4119 C   0  0  0  0  0  0  0  0  0  0  0  0
   -4.2265    1.7926    1.6229 C   0  0  0  0  0  0  0  0  0  0  0  0
   -2.8310   -1.9244   -0.0933 C   0  0  0  0  0  0  0  0  0  0  0  0
   -4.5522   -0.6442    1.1537 C   0  0  0  0  0  0  0  0  0  0  0  0
   -2.0969   -2.8273    0.6588 C   0  0  0  0  0  0  0  0  0  0  0  0
   -3.1381   -2.1750   -1.4213 C   0  0  0  0  0  0  0  0  0  0  0  0
    5.3416   -0.4224    0.7709 C   0  0  0  0  0  0  0  0  0  0  0  0
   -1.6581   -4.0120    0.0677 C   0  0  0  0  0  0  0  0  0  0  0  0
   -2.6996   -3.3598   -2.0126 C   0  0  0  0  0  0  0  0  0  0  0  0
   -1.9596   -4.2785   -1.2680 C   0  0  0  0  0  0  0  0  0  0  0  0
    6.6604   -0.4032    1.1939 C   0  0  0  0  0  0  0  0  0  0  0  0
    4.7603   -1.5762    0.2713 C   0  0  0  0  0  0  0  0  0  0  0  0
    7.4196   -1.5706    1.1146 C   0  0  0  0  0  0  0  0  0  0  0  0
    5.5196   -2.7436    0.1922 C   0  0  0  0  0  0  0  0  0  0  0  0
    6.8493   -2.7408    0.6140 C   0  0  0  0  0  0  0  0  0  0  0  0
   -0.7832   -6.3310   -1.0251 C   0  0  0  0  0  0  0  0  0  0  0  0
    0.4955    2.1283    2.2118 H   0  0  0  0  0  0  0  0  0  0  0  0
    2.9010    2.5880    1.8033 H   0  0  0  0  0  0  0  0  0  0  0  0
    3.4538    3.0624    0.1893 H   0  0  0  0  0  0  0  0  0  0  0  0
   -2.4339    3.6703    1.4541 H   0  0  0  0  0  0  0  0  0  0  0  0
    2.8228    3.2251   -2.0786 H   0  0  0  0  0  0  0  0  0  0  0  0
   -2.1583    3.6625   -1.9804 H   0  0  0  0  0  0  0  0  0  0  0  0
    1.5729    3.9618   -4.0911 H   0  0  0  0  0  0  0  0  0  0  0  0
   -0.8853    4.1759   -4.0406 H   0  0  0  0  0  0  0  0  0  0  0  0
   -5.8532    0.6468    2.0684 H   0  0  0  0  0  0  0  0  0  0  0  0
    5.0614    1.5708    1.2282 H   0  0  0  0  0  0  0  0  0  0  0  0
   -1.8569   -2.6255    1.6992 H   0  0  0  0  0  0  0  0  0  0  0  0
   -3.7131   -1.4639   -2.0080 H   0  0  0  0  0  0  0  0  0  0  0  0
   -1.0878   -4.6808    0.7032 H   0  0  0  0  0  0  0  0  0  0  0  0
   -2.9376   -3.5617   -3.0533 H   0  0  0  0  0  0  0  0  0  0  0  0
    7.1144    0.5028    1.5856 H   0  0  0  0  0  0  0  0  0  0  0  0
    3.7407   -1.6592   -0.0744 H   0  0  0  0  0  0  0  0  0  0  0  0
    8.4549   -1.5686    1.4429 H   0  0  0  0  0  0  0  0  0  0  0  0
    5.0769   -3.6557   -0.1975 H   0  0  0  0  0  0  0  0  0  0  0  0
    7.4404   -3.6498    0.5524 H   0  0  0  0  0  0  0  0  0  0  0  0
   -1.3794   -6.7034   -0.1852 H   0  0  0  0  0  0  0  0  0  0  0  0
    0.1605   -5.8817   -0.6974 H   0  0  0  0  0  0  0  0  0  0  0  0
   -0.5268   -7.1971   -1.6440 H   0  0  0  0  0  0  0  0  0  0  0  0
  1 25  2  0  0  0  0
  2 21  2  0  0  0  0
  3 22  2  0  0  0  0
  4 23  2  0  0  0  0
  5 31  1  0  0  0  0
  5 37  1  0  0  0  0
  6 10  1  0  0  0  0
  6 13  1  0  0  0  0
  6 14  1  0  0  0  0
  7 22  1  0  0  0  0
  7 24  1  0  0  0  0
  7 25  1  0  0  0  0
  8 23  1  0  0  0  0
  8 25  1  0  0  0  0
  8 46  1  0  0  0  0
  9 21  1  0  0  0  0
  9 28  1  0  0  0  0
  9 47  1  0  0  0  0
 10 11  1  0  0  0  0
 10 16  2  0  0  0  0
 11 12  1  0  0  0  0
 11 17  2  0  0  0  0
 12 13  2  0  0  0  0
 12 15  1  0  0  0  0
 13 38  1  0  0  0  0
 14 21  1  0  0  0  0
 14 39  1  0  0  0  0
 14 40  1  0  0  0  0
 15 18  2  0  0  0  0
 15 41  1  0  0  0  0
 16 19  1  0  0  0  0
 16 42  1  0  0  0  0
 17 20  1  0  0  0  0
 17 43  1  0  0  0  0
 18 22  1  0  0  0  0
 18 23  1  0  0  0  0
 19 20  2  0  0  0  0
 19 44  1  0  0  0  0
 20 45  1  0  0  0  0
 24 26  2  0  0  0  0
 24 27  1  0  0  0  0
 26 29  1  0  0  0  0
 26 48  1  0  0  0  0
 27 30  2  0  0  0  0
 27 49  1  0  0  0  0
 28 32  2  0  0  0  0
 28 33  1  0  0  0  0
 29 31  2  0  0  0  0
 29 50  1  0  0  0  0
 30 31  1  0  0  0  0
 30 51  1  0  0  0  0
 32 34  1  0  0  0  0
 32 52  1  0  0  0  0
 33 35  2  0  0  0  0
 33 53  1  0  0  0  0
 34 36  2  0  0  0  0
 34 54  1  0  0  0  0
 35 36  1  0  0  0  0
 35 55  1  0  0  0  0
 36 56  1  0  0  0  0
 37 57  1  0  0  0  0
 37 58  1  0  0  0  0
 37 59  1  0  0  0  0
M  END
> <PUBCHEM_COMPOUND_CID>
1921495

> <PUBCHEM_CONFORMER_RMSD>
1

> <PUBCHEM_CONFORMER_DIVERSEORDER>
1
7
19
2
12
10
21
4
22
8
20
16
3
11
9
15
24
13
23
6
18
5
17
14

> <PUBCHEM_MMFF94_PARTIAL_CHARGES>
53
1 -0.38
10 -0.15
12 -0.05
13 -0.3
14 0.32
15 -0.1
16 -0.15
17 -0.15
18 0.03
19 -0.15
2 -0.57
20 -0.15
21 0.57
22 0.62
23 0.62
24 0.12
25 0.5
26 -0.15
27 -0.15
28 0.12
29 -0.15
3 -0.57
30 -0.15
31 0.08
32 -0.15
33 -0.15
34 -0.15
35 -0.15
36 -0.15
37 0.28
38 0.15
4 -0.57
41 0.15
42 0.15
43 0.15
44 0.15
45 0.15
46 0.37
47 0.37
48 0.15
49 0.15
5 -0.36
50 0.15
51 0.15
52 0.15
53 0.15
54 0.15
55 0.15
56 0.15
6 0.05
7 -0.24
8 -0.49
9 -0.55

> <PUBCHEM_EFFECTIVE_ROTOR_COUNT>
7.4

> <PUBCHEM_PHARMACOPHORE_FEATURES>
14
1 1 acceptor
1 18 anion
1 2 acceptor
1 3 acceptor
1 4 acceptor
1 5 acceptor
1 6 cation
1 8 donor
1 9 donor
5 6 10 11 12 13 rings
6 10 11 16 17 19 20 rings
6 24 26 27 29 30 31 rings
6 28 32 33 34 35 36 rings
6 7 8 18 22 23 25 rings

> <PUBCHEM_HEAVY_ATOM_COUNT>
37

> <PUBCHEM_ATOM_DEF_STEREO_COUNT>
0

> <PUBCHEM_ATOM_UDEF_STEREO_COUNT>
0

> <PUBCHEM_BOND_DEF_STEREO_COUNT>
1

> <PUBCHEM_BOND_UDEF_STEREO_COUNT>
0

> <PUBCHEM_ISOTOPIC_ATOM_COUNT>
0

> <PUBCHEM_COMPONENT_COUNT>
1

> <PUBCHEM_CACTVS_TAUTO_COUNT>
6

> <PUBCHEM_CONFORMER_ID>
001D51D700000001

> <PUBCHEM_MMFF94_ENERGY>
140.7774

> <PUBCHEM_FEATURE_SELFOVERLAP>
71.141

> <PUBCHEM_SHAPE_FINGERPRINT>
10290309 65 17907576931155976262
10622 236 18193836183042216023
10815517 723 18409164394724520026
10940486 97 18338240482678393356
11069576 57 17543619185893835348
11285246 1 18115857671987375562
11477941 20 17313392159214352396
11763389 116 18050842226302008414
13690498 29 17896603886999967456
13692115 46 17898858945918527477
13761468 95 18117824522185413494
14040221 299 18130519526879349590
14674994 50 18265594559625455581
14918310 93 17974293123296371273
15320291 9 18051125089001970630
15320294 125 18413114965445531145
15444296 8 16951713310688848161
15803439 3 17394689953870809020
15911013 46 18054496169992369912
16110190 28 18341334414226101384
16628084 112 18194402415226779927
16728300 4 18193008234466936515
16989713 51 18262510409036539566
1813 80 17894915152371039360
19319366 153 16681469127568260846
20505436 4 17469089795550139949
20775530 9 18263069050462536216
21133410 221 17039218823747852290
229767 44 18342740693460886562
25019877 29 17704076179324164119
3534868 343 17546724215284628070
4017518 198 18198617744389221807
44880168 125 18199457784691144050
5080951 261 18044072593945780992
513202 73 17896038746038193096
56633871 153 18340204193007457803
6679774 75 18120405157574784339

> <PUBCHEM_SHAPE_MULTIPOLES>
721.89
13.48
8.19
2.37
24.01
7.18
1.76
11.38
-9.5
-3.4
6.37
-1.64
-1.99
-3.39

> <PUBCHEM_SHAPE_SELFOVERLAP>
1589.354

> <PUBCHEM_SHAPE_VOLUME>
390.2

> <PUBCHEM_COORDINATE_TYPE>
2
5
10

$$$$
