59453
  -OEChem-02101610533D

 36 39  0     0  0  0  0  0  0999 V2000
   -0.8491    3.9601   -0.6352 S   0  0  0  0  0  0  0  0  0  0  0  0
    0.4531    3.8331    0.9528 S   0  0  0  0  0  0  0  0  0  0  0  0
   -5.5502   -3.1016    0.4606 F   0  0  0  0  0  0  0  0  0  0  0  0
   -4.5662   -3.2192   -1.4745 F   0  0  0  0  0  0  0  0  0  0  0  0
   -3.4441   -3.6542    0.3435 F   0  0  0  0  0  0  0  0  0  0  0  0
    5.7776   -2.6369   -0.7673 F   0  0  0  0  0  0  0  0  0  0  0  0
    5.5401   -2.4912    1.3889 F   0  0  0  0  0  0  0  0  0  0  0  0
    3.9796   -3.4225    0.1841 F   0  0  0  0  0  0  0  0  0  0  0  0
   -2.8412   -0.9294   -0.6510 N   0  0  0  0  0  0  0  0  0  0  0  0
    3.2338   -0.6550    0.9342 N   0  0  0  0  0  0  0  0  0  0  0  0
   -4.6348   -0.4496    0.5705 N   0  0  0  0  0  0  0  0  0  0  0  0
    4.3877   -0.2015   -0.9104 N   0  0  0  0  0  0  0  0  0  0  0  0
   -2.7456    0.4095   -0.3707 C   0  0  0  0  0  0  0  0  0  0  0  0
    2.7951    0.5770    0.5216 C   0  0  0  0  0  0  0  0  0  0  0  0
   -3.8767    0.6848    0.3926 C   0  0  0  0  0  0  0  0  0  0  0  0
    3.5303    0.8378   -0.6314 C   0  0  0  0  0  0  0  0  0  0  0  0
   -3.9855   -1.3975   -0.0676 C   0  0  0  0  0  0  0  0  0  0  0  0
    4.1840   -1.0784    0.0471 C   0  0  0  0  0  0  0  0  0  0  0  0
   -1.7959    1.3741   -0.7091 C   0  0  0  0  0  0  0  0  0  0  0  0
    1.8473    1.4587    1.0421 C   0  0  0  0  0  0  0  0  0  0  0  0
   -2.0232    2.6725   -0.2413 C   0  0  0  0  0  0  0  0  0  0  0  0
    1.6494    2.6574    0.3461 C   0  0  0  0  0  0  0  0  0  0  0  0
   -4.0891    1.9947    0.8544 C   0  0  0  0  0  0  0  0  0  0  0  0
    3.3204    2.0451   -1.3188 C   0  0  0  0  0  0  0  0  0  0  0  0
   -3.1487    2.9795    0.5268 C   0  0  0  0  0  0  0  0  0  0  0  0
    2.3736    2.9455   -0.8146 C   0  0  0  0  0  0  0  0  0  0  0  0
   -4.3808   -2.8134   -0.1836 C   0  0  0  0  0  0  0  0  0  0  0  0
    4.8590   -2.3792    0.2102 C   0  0  0  0  0  0  0  0  0  0  0  0
   -2.1810   -1.4715   -1.1928 H   0  0  0  0  0  0  0  0  0  0  0  0
    2.9101   -1.1584    1.7497 H   0  0  0  0  0  0  0  0  0  0  0  0
   -0.9285    1.1161   -1.3077 H   0  0  0  0  0  0  0  0  0  0  0  0
    1.2948    1.2152    1.9437 H   0  0  0  0  0  0  0  0  0  0  0  0
   -4.9604    2.2431    1.4518 H   0  0  0  0  0  0  0  0  0  0  0  0
    3.8785    2.2804   -2.2194 H   0  0  0  0  0  0  0  0  0  0  0  0
   -3.3163    3.9930    0.8859 H   0  0  0  0  0  0  0  0  0  0  0  0
    2.2268    3.8825   -1.3483 H   0  0  0  0  0  0  0  0  0  0  0  0
  1  2  1  0  0  0  0
  1 21  1  0  0  0  0
  2 22  1  0  0  0  0
  3 27  1  0  0  0  0
  4 27  1  0  0  0  0
  5 27  1  0  0  0  0
  6 28  1  0  0  0  0
  7 28  1  0  0  0  0
  8 28  1  0  0  0  0
  9 13  1  0  0  0  0
  9 17  1  0  0  0  0
  9 29  1  0  0  0  0
 10 14  1  0  0  0  0
 10 18  1  0  0  0  0
 10 30  1  0  0  0  0
 11 15  1  0  0  0  0
 11 17  2  0  0  0  0
 12 16  1  0  0  0  0
 12 18  2  0  0  0  0
 13 15  2  0  0  0  0
 13 19  1  0  0  0  0
 14 16  2  0  0  0  0
 14 20  1  0  0  0  0
 15 23  1  0  0  0  0
 16 24  1  0  0  0  0
 17 27  1  0  0  0  0
 18 28  1  0  0  0  0
 19 21  2  0  0  0  0
 19 31  1  0  0  0  0
 20 22  2  0  0  0  0
 20 32  1  0  0  0  0
 21 25  1  0  0  0  0
 22 26  1  0  0  0  0
 23 25  2  0  0  0  0
 23 33  1  0  0  0  0
 24 26  2  0  0  0  0
 24 34  1  0  0  0  0
 25 35  1  0  0  0  0
 26 36  1  0  0  0  0
M  END
> <PUBCHEM_COMPOUND_CID>
59453

> <PUBCHEM_CONFORMER_RMSD>
0.8

> <PUBCHEM_CONFORMER_DIVERSEORDER>
1
59
51
55
64
54
58
68
17
90
89
88
7
63
8
38
16
22
12
18
15
21
11
67
53
60
79
52
69
61
62
37
80
44
70
27
2
43
28
91
36
92
66
84
25
49
10
65
9
35
50
26
57
5
45
6
87
56
29
46
86
81
77
83
82
4
48
40
85
39
94
42
93
3
47
78
41
71
72
30
31
32
75
76
74
23
19
24
20
73
34
13
14
33

> <PUBCHEM_MMFF94_PARTIAL_CHARGES>
36
1 -0.1
10 0.03
11 -0.57
12 -0.57
13 -0.15
14 -0.15
15 0.23
16 0.23
17 0.01
18 0.01
19 -0.15
2 -0.1
20 -0.15
21 0.1
22 0.1
23 -0.15
24 -0.15
25 -0.15
26 -0.15
27 1.2
28 1.2
29 0.27
3 -0.34
30 0.27
31 0.15
32 0.15
33 0.15
34 0.15
35 0.15
36 0.15
4 -0.34
5 -0.34
6 -0.34
7 -0.34
8 -0.34
9 0.03

> <PUBCHEM_EFFECTIVE_ROTOR_COUNT>
5

> <PUBCHEM_PHARMACOPHORE_FEATURES>
8
1 10 donor
1 9 donor
3 10 12 18 cation
3 9 11 17 cation
5 10 12 14 16 18 rings
5 9 11 13 15 17 rings
6 13 15 19 21 23 25 rings
6 14 16 20 22 24 26 rings

> <PUBCHEM_HEAVY_ATOM_COUNT>
28

> <PUBCHEM_ATOM_DEF_STEREO_COUNT>
0

> <PUBCHEM_ATOM_UDEF_STEREO_COUNT>
0

> <PUBCHEM_BOND_DEF_STEREO_COUNT>
0

> <PUBCHEM_BOND_UDEF_STEREO_COUNT>
0

> <PUBCHEM_ISOTOPIC_ATOM_COUNT>
0

> <PUBCHEM_COMPONENT_COUNT>
1

> <PUBCHEM_CACTVS_TAUTO_COUNT>
3

> <PUBCHEM_CONFORMER_ID>
0000E83D00000001

> <PUBCHEM_MMFF94_ENERGY>
27.4099

> <PUBCHEM_FEATURE_SELFOVERLAP>
40.811

> <PUBCHEM_SHAPE_FINGERPRINT>
10928967 22 18198073658027226911
11014199 57 18409165498066800400
117089 54 18338811081721343843
11756154 67 18337677425577480509
12107183 9 18270414827935410593
12174731 88 18191300477200324954
12633257 1 18201452345812149009
12969540 37 18194680608094316885
12990986 174 18339355271610297232
13533116 47 18194401315382355615
1361 2 17403173098348734099
13965767 371 11743575274816985584
14429380 30 18335419080212920482
14866123 147 18341052900937933601
150020 26 17917149390587357566
15250474 111 18410012143373516902
15320294 125 17683239166803492130
16110190 28 18342176605689219824
17492 89 18410855503172877743
17909252 39 18267589202498214112
19319366 153 17834398204282345012
20775530 9 18334852822664779945
23379529 103 18268155258161395788
23559900 14 18340476868324341369
25222932 49 18128819840299821372
3146121 3 18409444809593063584
3246872 21 18263361378743008850
325973 47 18337113483033797234
3383291 50 18196365915123312233
345986 75 17702113658542336809
3737641 26 18265908023460459953
44062 13 18339925917997302897
4435113 14 17199122015556672454
44880168 125 17203057309063206934
463206 1 18337676312817012800
508706 21 18198908006826906911
5104073 3 18130791169869064289
56633871 153 18412269411297917481
6823239 73 17701569305417668332
7970288 3 18338235960077707074
88748 71 18410014377057236537
9849439 229 9943531833943004457

> <PUBCHEM_SHAPE_MULTIPOLES>
520.36
13.03
5.9
1.1
3.21
1.43
0.04
15.29
-0.28
-1.86
0
0.43
-0.19
-1.47

> <PUBCHEM_SHAPE_SELFOVERLAP>
1135.318

> <PUBCHEM_SHAPE_VOLUME>
289.7

> <PUBCHEM_COORDINATE_TYPE>
2
5
10

$$$$
