1274615
  -OEChem-02101610503D

 39 41  0     0  0  0  0  0  0999 V2000
    6.5684   -2.4195   -0.4156 S   0  0  0  0  0  0  0  0  0  0  0  0
   -0.1086    0.5851   -0.0796 O   0  0  0  0  0  0  0  0  0  0  0  0
   -4.1486    2.7535   -0.8735 O   0  5  0  0  0  0  0  0  0  0  0  0
   -2.1654    2.6438    0.0613 O   0  0  0  0  0  0  0  0  0  0  0  0
    4.5783    2.0264   -1.3916 O   0  0  0  0  0  0  0  0  0  0  0  0
    1.9978   -1.1529    1.0623 O   0  0  0  0  0  0  0  0  0  0  0  0
   -3.2138    2.0996   -0.3559 N   0  3  0  0  0  0  0  0  0  0  0  0
    5.3997   -0.0648   -0.8836 N   0  0  0  0  0  0  0  0  0  0  0  0
    4.1278   -1.6319    0.3281 N   0  0  0  0  0  0  0  0  0  0  0  0
   -2.3337   -0.0913    0.3356 C   0  0  0  0  0  0  0  0  0  0  0  0
   -3.6791   -2.0757   -0.0320 C   0  0  0  0  0  0  0  0  0  0  0  0
   -4.6840   -1.2932   -0.6009 C   0  0  0  0  0  0  0  0  0  0  0  0
   -1.1173    0.4917    0.8264 C   0  0  0  0  0  0  0  0  0  0  0  0
   -3.3481    0.6867   -0.2371 C   0  0  0  0  0  0  0  0  0  0  0  0
   -2.5087   -1.4772    0.4342 C   0  0  0  0  0  0  0  0  0  0  0  0
   -4.5184    0.0881   -0.7034 C   0  0  0  0  0  0  0  0  0  0  0  0
    0.9276    1.1517    0.5740 C   0  0  0  0  0  0  0  0  0  0  0  0
   -0.7217    0.9958    2.0434 C   0  0  0  0  0  0  0  0  0  0  0  0
   -3.8359   -3.5560    0.0902 C   0  0  0  0  0  0  0  0  0  0  0  0
    0.6159    1.4263    1.8745 C   0  0  0  0  0  0  0  0  0  0  0  0
   -5.9468   -1.9113   -1.1046 C   0  0  0  0  0  0  0  0  0  0  0  0
    2.1750    1.4059   -0.0796 C   0  0  0  0  0  0  0  0  0  0  0  0
    3.1840    0.5272   -0.1568 C   0  0  0  0  0  0  0  0  0  0  0  0
    4.4278    0.9260   -0.8689 C   0  0  0  0  0  0  0  0  0  0  0  0
    3.0184   -0.8105    0.4727 C   0  0  0  0  0  0  0  0  0  0  0  0
    5.3094   -1.3236   -0.3198 C   0  0  0  0  0  0  0  0  0  0  0  0
   -1.7256   -2.0900    0.8775 H   0  0  0  0  0  0  0  0  0  0  0  0
   -5.3165    0.6765   -1.1502 H   0  0  0  0  0  0  0  0  0  0  0  0
   -1.3191    1.0485    2.9428 H   0  0  0  0  0  0  0  0  0  0  0  0
   -4.7009   -3.8019    0.7147 H   0  0  0  0  0  0  0  0  0  0  0  0
   -3.9570   -4.0139   -0.8968 H   0  0  0  0  0  0  0  0  0  0  0  0
   -2.9595   -4.0204    0.5556 H   0  0  0  0  0  0  0  0  0  0  0  0
    1.2562    1.8776    2.6196 H   0  0  0  0  0  0  0  0  0  0  0  0
   -6.6292   -1.1627   -1.5220 H   0  0  0  0  0  0  0  0  0  0  0  0
   -5.7326   -2.6311   -1.9012 H   0  0  0  0  0  0  0  0  0  0  0  0
   -6.4798   -2.4155   -0.2920 H   0  0  0  0  0  0  0  0  0  0  0  0
    2.2675    2.3909   -0.5296 H   0  0  0  0  0  0  0  0  0  0  0  0
    6.2694    0.1599   -1.3589 H   0  0  0  0  0  0  0  0  0  0  0  0
    4.0636   -2.5579    0.7420 H   0  0  0  0  0  0  0  0  0  0  0  0
  1 26  2  0  0  0  0
  2 13  1  0  0  0  0
  2 17  1  0  0  0  0
  3  7  1  0  0  0  0
  4  7  2  0  0  0  0
  5 24  2  0  0  0  0
  6 25  2  0  0  0  0
  7 14  1  0  0  0  0
  8 24  1  0  0  0  0
  8 26  1  0  0  0  0
  8 38  1  0  0  0  0
  9 25  1  0  0  0  0
  9 26  1  0  0  0  0
  9 39  1  0  0  0  0
 10 13  1  0  0  0  0
 10 14  2  0  0  0  0
 10 15  1  0  0  0  0
 11 12  1  0  0  0  0
 11 15  2  0  0  0  0
 11 19  1  0  0  0  0
 12 16  2  0  0  0  0
 12 21  1  0  0  0  0
 13 18  2  0  0  0  0
 14 16  1  0  0  0  0
 15 27  1  0  0  0  0
 16 28  1  0  0  0  0
 17 20  2  0  0  0  0
 17 22  1  0  0  0  0
 18 20  1  0  0  0  0
 18 29  1  0  0  0  0
 19 30  1  0  0  0  0
 19 31  1  0  0  0  0
 19 32  1  0  0  0  0
 20 33  1  0  0  0  0
 21 34  1  0  0  0  0
 21 35  1  0  0  0  0
 21 36  1  0  0  0  0
 22 23  2  0  0  0  0
 22 37  1  0  0  0  0
 23 24  1  0  0  0  0
 23 25  1  0  0  0  0
M  CHG  2   3  -1   7   1
M  END
> <PUBCHEM_COMPOUND_CID>
1274615

> <PUBCHEM_CONFORMER_RMSD>
0.8

> <PUBCHEM_CONFORMER_DIVERSEORDER>
1
5
3
7
4
6
2
8

> <PUBCHEM_MMFF94_PARTIAL_CHARGES>
33
1 -0.38
10 0.05
11 -0.14
12 -0.14
13 0.09
14 0.13
15 -0.15
16 -0.15
17 0.09
18 -0.15
19 0.14
2 -0.28
20 -0.15
21 0.14
22 -0.11
23 0.03
24 0.62
25 0.62
26 0.5
27 0.15
28 0.15
29 0.15
3 -0.52
33 0.15
37 0.15
38 0.37
39 0.37
4 -0.52
5 -0.57
6 -0.57
7 0.91
8 -0.49
9 -0.49

> <PUBCHEM_EFFECTIVE_ROTOR_COUNT>
3.4

> <PUBCHEM_PHARMACOPHORE_FEATURES>
13
1 1 acceptor
1 2 acceptor
1 23 anion
1 3 acceptor
1 3 anion
1 4 acceptor
1 5 acceptor
1 6 acceptor
1 8 donor
1 9 donor
5 2 13 17 18 20 rings
6 10 11 12 14 15 16 rings
6 8 9 23 24 25 26 rings

> <PUBCHEM_HEAVY_ATOM_COUNT>
26

> <PUBCHEM_ATOM_DEF_STEREO_COUNT>
0

> <PUBCHEM_ATOM_UDEF_STEREO_COUNT>
0

> <PUBCHEM_BOND_DEF_STEREO_COUNT>
0

> <PUBCHEM_BOND_UDEF_STEREO_COUNT>
0

> <PUBCHEM_ISOTOPIC_ATOM_COUNT>
0

> <PUBCHEM_COMPONENT_COUNT>
1

> <PUBCHEM_CACTVS_TAUTO_COUNT>
5

> <PUBCHEM_CONFORMER_ID>
001372F700000001

> <PUBCHEM_MMFF94_ENERGY>
82.4544

> <PUBCHEM_FEATURE_SELFOVERLAP>
66.098

> <PUBCHEM_SHAPE_FINGERPRINT>
10165383 225 18196089929410432105
10595046 47 18334861657898110108
10622 236 18192415399572198834
11135609 99 18343862222051195926
11796584 16 18270119007435134078
12236239 1 18342741789288924388
12633257 1 16485858093721016183
12714826 92 18131350838730929097
12760667 363 18202003239823921507
12788726 201 17771903822916612689
12954195 1 18341605976803557261
12969540 114 15068340120295075721
13690498 29 18410572911816283583
13782708 43 17773868869940231191
14211702 104 17988089881354751838
14251740 79 18409450267547243067
14251751 18 18343579638276109434
14251757 5 18410855452081650379
14347332 77 18411414021078667893
14790565 3 17908707224836059697
14849402 71 11310897671907425434
14910302 57 18337661001237587581
15064986 266 18261688029424360659
15082195 135 18041847341093272796
15183329 4 18260544485417345647
15188451 53 14692278600050065695
15250474 111 18261382330595477522
15510800 12 17273425976401399590
1813 80 15482678995806642192
18222031 100 16917073307848889147
18681886 176 18412821375062670666
19958102 18 18333723615802327639
20028762 73 18342176614859994478
20642791 268 11527936877250708698
20693207 138 18201145659382490977
20739085 24 11383844770650854594
21033648 29 13110699211315752387
221357 26 18411978100513802251
22393880 68 18335416842487077090
23379529 103 18267306623926508451
23522609 53 17983890957943507449
23559900 14 18340476872260489145
249057 3 18262800644718230244
25122255 55 17917720045986057454
3004659 81 18408037403822189682
3117164 225 10159162509516604348
329604 57 18342180002844469894
4214541 1 18336547131444548260
4280585 95 17692256236221010742
439807 62 18337956796063128591
44062 13 18412544297298982159
463206 1 17987793145905752535
465052 167 17917433197741495735
474144 1 17896579735486941682
5104073 3 17418098732208134280
559249 180 18340202973231340743
59755656 520 18270685252061482049
633830 44 16877668941719521072
6437827 68 18412545418217277534
7970288 3 17917991693698273982

> <PUBCHEM_SHAPE_MULTIPOLES>
494.63
14.38
3.16
1.25
9.74
0.93
-0.38
9.44
6.14
-2.01
0.27
0.12
-0.5
-0.28

> <PUBCHEM_SHAPE_SELFOVERLAP>
1080.802

> <PUBCHEM_SHAPE_VOLUME>
271.4

> <PUBCHEM_COORDINATE_TYPE>
2
5
10

$$$$
