722851
  -OEChem-02101610513D

 42 44  0     0  0  0  0  0  0999 V2000
   -2.8231   -1.8626   -1.0242 S   0  0  0  0  0  0  0  0  0  0  0  0
    1.0295   -1.3923    1.6158 O   0  0  0  0  0  0  0  0  0  0  0  0
    6.9822    0.7955    0.3286 O   0  0  0  0  0  0  0  0  0  0  0  0
    1.5717   -0.2195   -0.3441 N   0  0  0  0  0  0  0  0  0  0  0  0
   -0.4525   -3.0978   -1.1348 N   0  0  0  0  0  0  0  0  0  0  0  0
   -1.6986   -0.0396    0.3945 C   0  0  0  0  0  0  0  0  0  0  0  0
   -0.6803   -0.9890    0.0917 C   0  0  0  0  0  0  0  0  0  0  0  0
   -2.9156   -0.3910   -0.1511 C   0  0  0  0  0  0  0  0  0  0  0  0
   -1.1555   -2.0311   -0.6736 C   0  0  0  0  0  0  0  0  0  0  0  0
   -4.1864    0.2885   -0.0820 C   0  0  0  0  0  0  0  0  0  0  0  0
   -1.4728    1.1856    1.2037 C   0  0  0  0  0  0  0  0  0  0  0  0
    0.6945   -0.8987    0.5204 C   0  0  0  0  0  0  0  0  0  0  0  0
   -4.5283    1.2302   -1.0525 C   0  0  0  0  0  0  0  0  0  0  0  0
   -5.0728    0.0041    0.9566 C   0  0  0  0  0  0  0  0  0  0  0  0
    2.9389    0.0375   -0.1738 C   0  0  0  0  0  0  0  0  0  0  0  0
   -5.7568    1.8876   -0.9843 C   0  0  0  0  0  0  0  0  0  0  0  0
   -6.3013    0.6613    1.0248 C   0  0  0  0  0  0  0  0  0  0  0  0
    3.5873   -0.4050    0.9753 C   0  0  0  0  0  0  0  0  0  0  0  0
    3.6387    0.7333   -1.1552 C   0  0  0  0  0  0  0  0  0  0  0  0
   -6.6432    1.6030    0.0543 C   0  0  0  0  0  0  0  0  0  0  0  0
    4.9480   -0.1493    1.1446 C   0  0  0  0  0  0  0  0  0  0  0  0
    4.9995    0.9887   -0.9858 C   0  0  0  0  0  0  0  0  0  0  0  0
    5.6542    0.5475    0.1641 C   0  0  0  0  0  0  0  0  0  0  0  0
    7.6427    1.5131   -0.7128 C   0  0  0  0  0  0  0  0  0  0  0  0
   -0.6087    1.0840    1.8678 H   0  0  0  0  0  0  0  0  0  0  0  0
   -1.2958    2.0435    0.5465 H   0  0  0  0  0  0  0  0  0  0  0  0
   -2.3353    1.4123    1.8390 H   0  0  0  0  0  0  0  0  0  0  0  0
    1.1688    0.1397   -1.2074 H   0  0  0  0  0  0  0  0  0  0  0  0
   -3.8482    1.4650   -1.8680 H   0  0  0  0  0  0  0  0  0  0  0  0
   -4.8214   -0.7261    1.7223 H   0  0  0  0  0  0  0  0  0  0  0  0
    0.5367   -3.2236   -0.9448 H   0  0  0  0  0  0  0  0  0  0  0  0
   -0.8928   -3.8199   -1.6959 H   0  0  0  0  0  0  0  0  0  0  0  0
   -6.0229    2.6212   -1.7396 H   0  0  0  0  0  0  0  0  0  0  0  0
   -6.9915    0.4402    1.8338 H   0  0  0  0  0  0  0  0  0  0  0  0
    3.1166   -0.9495    1.7803 H   0  0  0  0  0  0  0  0  0  0  0  0
    3.1393    1.0821   -2.0555 H   0  0  0  0  0  0  0  0  0  0  0  0
   -7.5996    2.1150    0.1075 H   0  0  0  0  0  0  0  0  0  0  0  0
    5.4541   -0.4952    2.0419 H   0  0  0  0  0  0  0  0  0  0  0  0
    5.4867    1.5348   -1.7864 H   0  0  0  0  0  0  0  0  0  0  0  0
    8.6911    1.6214   -0.4160 H   0  0  0  0  0  0  0  0  0  0  0  0
    7.6333    0.9544   -1.6549 H   0  0  0  0  0  0  0  0  0  0  0  0
    7.2363    2.5239   -0.8254 H   0  0  0  0  0  0  0  0  0  0  0  0
  1  8  1  0  0  0  0
  1  9  1  0  0  0  0
  2 12  2  0  0  0  0
  3 23  1  0  0  0  0
  3 24  1  0  0  0  0
  4 12  1  0  0  0  0
  4 15  1  0  0  0  0
  4 28  1  0  0  0  0
  5  9  1  0  0  0  0
  5 31  1  0  0  0  0
  5 32  1  0  0  0  0
  6  7  1  0  0  0  0
  6  8  2  0  0  0  0
  6 11  1  0  0  0  0
  7  9  2  0  0  0  0
  7 12  1  0  0  0  0
  8 10  1  0  0  0  0
 10 13  2  0  0  0  0
 10 14  1  0  0  0  0
 11 25  1  0  0  0  0
 11 26  1  0  0  0  0
 11 27  1  0  0  0  0
 13 16  1  0  0  0  0
 13 29  1  0  0  0  0
 14 17  2  0  0  0  0
 14 30  1  0  0  0  0
 15 18  2  0  0  0  0
 15 19  1  0  0  0  0
 16 20  2  0  0  0  0
 16 33  1  0  0  0  0
 17 20  1  0  0  0  0
 17 34  1  0  0  0  0
 18 21  1  0  0  0  0
 18 35  1  0  0  0  0
 19 22  2  0  0  0  0
 19 36  1  0  0  0  0
 20 37  1  0  0  0  0
 21 23  2  0  0  0  0
 21 38  1  0  0  0  0
 22 23  1  0  0  0  0
 22 39  1  0  0  0  0
 24 40  1  0  0  0  0
 24 41  1  0  0  0  0
 24 42  1  0  0  0  0
M  END
> <PUBCHEM_COMPOUND_CID>
722851

> <PUBCHEM_CONFORMER_RMSD>
0.8

> <PUBCHEM_CONFORMER_DIVERSEORDER>
1
7
4
5
6
3
2

> <PUBCHEM_MMFF94_PARTIAL_CHARGES>
36
1 -0.08
10 0.05
11 0.18
12 0.72
13 -0.15
14 -0.15
15 0.12
16 -0.15
17 -0.15
18 -0.15
19 -0.15
2 -0.57
20 -0.15
21 -0.15
22 -0.15
23 0.08
24 0.28
28 0.37
29 0.15
3 -0.36
30 0.15
31 0.4
32 0.4
33 0.15
34 0.15
35 0.15
36 0.15
37 0.15
38 0.15
39 0.15
4 -0.55
5 -0.88
6 -0.18
7 -0.09
8 -0.01
9 0.12

> <PUBCHEM_EFFECTIVE_ROTOR_COUNT>
5

> <PUBCHEM_PHARMACOPHORE_FEATURES>
8
1 2 acceptor
1 3 acceptor
1 4 donor
1 5 cation
1 5 donor
5 1 6 7 8 9 rings
6 10 13 14 16 17 20 rings
6 15 18 19 21 22 23 rings

> <PUBCHEM_HEAVY_ATOM_COUNT>
24

> <PUBCHEM_ATOM_DEF_STEREO_COUNT>
0

> <PUBCHEM_ATOM_UDEF_STEREO_COUNT>
0

> <PUBCHEM_BOND_DEF_STEREO_COUNT>
0

> <PUBCHEM_BOND_UDEF_STEREO_COUNT>
0

> <PUBCHEM_ISOTOPIC_ATOM_COUNT>
0

> <PUBCHEM_COMPONENT_COUNT>
1

> <PUBCHEM_CACTVS_TAUTO_COUNT>
5

> <PUBCHEM_CONFORMER_ID>
000B07A300000001

> <PUBCHEM_MMFF94_ENERGY>
81.2287

> <PUBCHEM_FEATURE_SELFOVERLAP>
40.596

> <PUBCHEM_SHAPE_FINGERPRINT>
10 15 18113903758367442793
10369192 42 18341897385680798165
10411042 1 17765710613974809639
105312 117 18202001036495058743
10670039 82 18129952165251060456
11315181 36 16702028625430133730
12236239 1 18333728022607389762
12293681 160 17775566425055652163
12516196 113 8070022264079585151
12596602 18 17095521777437101113
12616971 3 18040704870964756994
12760667 363 8718826492434928581
12788726 201 17703512090691959361
12895836 83 18341891917707349271
13073987 5 14635132505277434372
13167372 99 17968093080032490724
13257819 101 18188762843745507229
13533116 47 17560240211445867478
13540713 4 17058069254499103691
13911987 19 18272078363284467437
14251764 18 16370729244598988044
14849402 71 16661221363493206868
15183329 4 14476964458870448761
1577012 14 18334289894998695258
18006028 8 7997967964302685107
18222031 100 12319736960368856878
20281389 69 18335137591892222448
20505436 4 18261107491860210442
20511986 3 18335690689971414472
20554085 129 17560505245414551602
21150785 3 17632289082695016725
21267235 1 12463561899313890813
21756936 100 18187081797208297507
22122407 14 17604446157444022180
22224240 67 16081088194675243521
23198884 109 16056882420952771889
23402539 116 18059850696813886214
23559900 14 17489305326190575658
2838139 119 18333443253296045269
293599 30 18343581837315156811
300161 21 18342735230763184494
312425 54 15285639850804999185
3472631 163 18341051908341305532
3663271 9 17022620866623247289
4015057 19 14907893946405643170
4340502 62 17095528361890692675
465052 167 8646480843087378496
5104073 3 16661486389151218664
5385378 56 18271534078779087211
5718773 13 8573841578273310217
57527585 21 17980734092894146021
7226269 152 18202565081469928865
9663363 56 7925631072989277535
9953998 17 15864073178661059065

> <PUBCHEM_SHAPE_MULTIPOLES>
476.06
18.67
2.04
1.29
13.45
1.07
-0.09
-13.6
0.65
-1.5
0.77
-0.05
0.07
-0.76

> <PUBCHEM_SHAPE_SELFOVERLAP>
1024.58

> <PUBCHEM_SHAPE_VOLUME>
264.7

> <PUBCHEM_COORDINATE_TYPE>
2
5
10

$$$$
