2270214
  -OEChem-02101610503D

 39 42  0     0  0  0  0  0  0999 V2000
   -6.7879    3.4472   -0.5772 Br  0  0  0  0  0  0  0  0  0  0  0  0
   -1.7377   -3.5836   -0.0250 S   0  0  0  0  0  0  0  0  0  0  0  0
    1.9498    1.3676    1.0913 O   0  0  0  0  0  0  0  0  0  0  0  0
    6.8699   -0.0572   -1.0054 O   0  0  0  0  0  0  0  0  0  0  0  0
   -0.2402    0.9043    1.5167 O   0  0  0  0  0  0  0  0  0  0  0  0
   -1.4386   -1.0200    0.1201 N   0  0  0  0  0  0  0  0  0  0  0  0
   -3.6761   -1.7624   -0.0613 N   0  0  0  0  0  0  0  0  0  0  0  0
    3.3240   -0.2328   -0.1043 C   0  0  0  0  0  0  0  0  0  0  0  0
    0.9693   -0.7458    0.2901 C   0  0  0  0  0  0  0  0  0  0  0  0
    3.1896    0.9850    0.5493 C   0  0  0  0  0  0  0  0  0  0  0  0
    2.1611   -1.0959   -0.2213 C   0  0  0  0  0  0  0  0  0  0  0  0
   -0.1887   -1.5961    0.1726 C   0  0  0  0  0  0  0  0  0  0  0  0
    4.5703   -0.5832   -0.6290 C   0  0  0  0  0  0  0  0  0  0  0  0
    0.8215    0.5552    1.0092 C   0  0  0  0  0  0  0  0  0  0  0  0
    4.2620    1.8627    0.6945 C   0  0  0  0  0  0  0  0  0  0  0  0
    5.6565    0.2861   -0.4914 C   0  0  0  0  0  0  0  0  0  0  0  0
    5.5021    1.5068    0.1691 C   0  0  0  0  0  0  0  0  0  0  0  0
   -2.3353   -1.9755    0.0154 C   0  0  0  0  0  0  0  0  0  0  0  0
   -0.1426   -2.9682    0.1082 C   0  0  0  0  0  0  0  0  0  0  0  0
   -4.4014   -0.5489   -0.1814 C   0  0  0  0  0  0  0  0  0  0  0  0
   -5.7268   -0.4943    0.2359 C   0  0  0  0  0  0  0  0  0  0  0  0
   -3.7802    0.5752   -0.7148 C   0  0  0  0  0  0  0  0  0  0  0  0
   -6.4397    0.6990    0.1184 C   0  0  0  0  0  0  0  0  0  0  0  0
   -4.4930    1.7684   -0.8321 C   0  0  0  0  0  0  0  0  0  0  0  0
   -5.8228    1.8303   -0.4155 C   0  0  0  0  0  0  0  0  0  0  0  0
    7.9351    0.8758   -0.8323 C   0  0  0  0  0  0  0  0  0  0  0  0
    2.3028   -2.0296   -0.7577 H   0  0  0  0  0  0  0  0  0  0  0  0
    4.7054   -1.5301   -1.1469 H   0  0  0  0  0  0  0  0  0  0  0  0
    4.1387    2.8107    1.2090 H   0  0  0  0  0  0  0  0  0  0  0  0
    6.3036    2.2241    0.3087 H   0  0  0  0  0  0  0  0  0  0  0  0
    0.7067   -3.6367    0.1381 H   0  0  0  0  0  0  0  0  0  0  0  0
   -4.2816   -2.5765    0.0133 H   0  0  0  0  0  0  0  0  0  0  0  0
   -6.2175   -1.3690    0.6546 H   0  0  0  0  0  0  0  0  0  0  0  0
   -2.7613    0.5641   -1.0859 H   0  0  0  0  0  0  0  0  0  0  0  0
   -7.4750    0.7305    0.4477 H   0  0  0  0  0  0  0  0  0  0  0  0
   -4.0004    2.6389   -1.2580 H   0  0  0  0  0  0  0  0  0  0  0  0
    8.1731    1.0234    0.2265 H   0  0  0  0  0  0  0  0  0  0  0  0
    7.7311    1.8202   -1.3482 H   0  0  0  0  0  0  0  0  0  0  0  0
    8.8241    0.4416   -1.3016 H   0  0  0  0  0  0  0  0  0  0  0  0
  1 25  1  0  0  0  0
  2 18  1  0  0  0  0
  2 19  1  0  0  0  0
  3 10  1  0  0  0  0
  3 14  1  0  0  0  0
  4 16  1  0  0  0  0
  4 26  1  0  0  0  0
  5 14  2  0  0  0  0
  6 12  1  0  0  0  0
  6 18  2  0  0  0  0
  7 18  1  0  0  0  0
  7 20  1  0  0  0  0
  7 32  1  0  0  0  0
  8 10  2  0  0  0  0
  8 11  1  0  0  0  0
  8 13  1  0  0  0  0
  9 11  2  0  0  0  0
  9 12  1  0  0  0  0
  9 14  1  0  0  0  0
 10 15  1  0  0  0  0
 11 27  1  0  0  0  0
 12 19  2  0  0  0  0
 13 16  2  0  0  0  0
 13 28  1  0  0  0  0
 15 17  2  0  0  0  0
 15 29  1  0  0  0  0
 16 17  1  0  0  0  0
 17 30  1  0  0  0  0
 19 31  1  0  0  0  0
 20 21  2  0  0  0  0
 20 22  1  0  0  0  0
 21 23  1  0  0  0  0
 21 33  1  0  0  0  0
 22 24  2  0  0  0  0
 22 34  1  0  0  0  0
 23 25  2  0  0  0  0
 23 35  1  0  0  0  0
 24 25  1  0  0  0  0
 24 36  1  0  0  0  0
 26 37  1  0  0  0  0
 26 38  1  0  0  0  0
 26 39  1  0  0  0  0
M  END
> <PUBCHEM_COMPOUND_CID>
2270214

> <PUBCHEM_CONFORMER_RMSD>
0.8

> <PUBCHEM_CONFORMER_DIVERSEORDER>
1
16
24
28
34
3
27
12
14
22
10
32
31
9
13
2
19
4
33
25
5
15
37
21
11
23
36
20
7
35
18
30
6
8
39
17
38
29
26

> <PUBCHEM_MMFF94_PARTIAL_CHARGES>
36
1 -0.11
10 0.08
11 -0.18
12 0.18
13 -0.15
14 0.71
15 -0.15
16 0.08
17 -0.15
18 0.46
19 -0.11
2 -0.08
20 0.1
21 -0.15
22 -0.15
23 -0.15
24 -0.15
25 0.11
26 0.28
27 0.15
28 0.15
29 0.15
3 -0.23
30 0.15
31 0.15
32 0.4
33 0.15
34 0.15
35 0.15
36 0.15
4 -0.36
5 -0.57
6 -0.57
7 -0.58
8 0.03
9 0.06

> <PUBCHEM_EFFECTIVE_ROTOR_COUNT>
4

> <PUBCHEM_PHARMACOPHORE_FEATURES>
9
1 1 hydrophobe
1 4 acceptor
1 5 acceptor
1 7 donor
3 6 7 18 cation
5 2 6 12 18 19 rings
6 20 21 22 23 24 25 rings
6 3 8 9 10 11 14 rings
6 8 10 13 15 16 17 rings

> <PUBCHEM_HEAVY_ATOM_COUNT>
26

> <PUBCHEM_ATOM_DEF_STEREO_COUNT>
0

> <PUBCHEM_ATOM_UDEF_STEREO_COUNT>
0

> <PUBCHEM_BOND_DEF_STEREO_COUNT>
0

> <PUBCHEM_BOND_UDEF_STEREO_COUNT>
0

> <PUBCHEM_ISOTOPIC_ATOM_COUNT>
0

> <PUBCHEM_COMPONENT_COUNT>
1

> <PUBCHEM_CACTVS_TAUTO_COUNT>
2

> <PUBCHEM_CONFORMER_ID>
0022A40600000001

> <PUBCHEM_MMFF94_ENERGY>
90.2555

> <PUBCHEM_FEATURE_SELFOVERLAP>
45.698

> <PUBCHEM_SHAPE_FINGERPRINT>
10 15 18041000631524550475
10165383 225 18411421700955044211
10190206 1 18130233661518153961
10670039 82 18334851727938886069
10835480 77 18058446676986028840
11408170 132 18335994138623655348
1200032 147 18262240989590170897
12293681 160 18059857242534144899
12390115 104 18411704271000676779
12788726 201 17917713444246439520
13402501 40 18412824690123340645
13540713 4 17843678018169701618
13944108 23 17837488558143464953
14251752 14 18408322190339699434
14347329 18 18410283701645534713
14790565 3 18411419484330244745
14856354 85 16443352017536244883
14931854 50 17988071194068084417
14933364 13 18409451392401192029
15052358 14 18343023293982233500
15183329 4 18202567263123060362
15230672 131 18408321069486013442
15510800 12 11383529232267882029
15604295 49 18264208196719472332
15927050 60 18409445912092793450
16992727 255 18408890620302703604
18608769 82 18339645650740450067
19611394 137 17823431568638885555
20715895 44 18411417298033330036
21033648 29 18340477967118103049
21133410 127 17825386267863585541
21279426 13 18272375265219202718
21424621 283 18113620088235221506
21859007 373 18342162385353209456
23559900 14 18130787923564332522
23569914 152 17484537641924868726
2838139 119 18341325660871729471
293599 30 18410292514733809211
3004659 81 18412545449062036256
3009799 131 17846499244984671874
335352 9 18343023328526724782
4058900 60 18263929848040187387
4073 2 18115873069803593482
5104073 3 18041277656962953499
5265222 85 18266185109433911246
5283173 99 18340485668321492522
59682541 35 10809349966491275460
59755656 215 18342179951563260342
59755656 520 18334289889965763087
6327066 14 18335415726270282317
6328613 192 18262241122560070460
636775 72 18267017439673516072
7808743 9 18335976549940786475
7970288 3 9439393641111650693
9980921 52 14475290899247273748

> <PUBCHEM_SHAPE_MULTIPOLES>
517.29
19.32
3.34
0.94
6.31
1.22
-0.09
-16.24
5.47
-4.92
0.18
0.48
-0.3
1.11

> <PUBCHEM_SHAPE_SELFOVERLAP>
1118.562

> <PUBCHEM_SHAPE_VOLUME>
290.6

> <PUBCHEM_COORDINATE_TYPE>
2
5
10

$$$$
