2285789
  -OEChem-02101610513D

 50 52  0     0  0  0  0  0  0999 V2000
   -3.6824   -1.5192   -0.0172 O   0  0  0  0  0  0  0  0  0  0  0  0
   -0.6416   -2.8469   -0.9731 O   0  0  0  0  0  0  0  0  0  0  0  0
    2.4651    0.7605   -0.5227 O   0  0  0  0  0  0  0  0  0  0  0  0
   -1.8213   -0.3370    1.6822 O   0  0  0  0  0  0  0  0  0  0  0  0
   -3.6855    4.8154   -0.6941 O   0  0  0  0  0  0  0  0  0  0  0  0
   -2.9181   -3.5829   -0.9950 C   0  0  0  0  0  0  0  0  0  0  0  0
   -3.4409   -2.1784   -1.2530 C   0  0  0  0  0  0  0  0  0  0  0  0
   -1.6082   -3.5704   -0.2244 C   0  0  0  0  0  0  0  0  0  0  0  0
   -3.5164   -0.1588    0.0006 C   0  0  0  0  0  0  0  0  0  0  0  0
    0.3385   -2.2049   -0.2615 C   0  0  0  0  0  0  0  0  0  0  0  0
   -2.5834    0.4304    0.8539 C   0  0  0  0  0  0  0  0  0  0  0  0
   -4.2905    0.6378   -0.8431 C   0  0  0  0  0  0  0  0  0  0  0  0
    0.9102   -1.0346   -0.7606 C   0  0  0  0  0  0  0  0  0  0  0  0
    1.9072   -0.3814   -0.0360 C   0  0  0  0  0  0  0  0  0  0  0  0
   -2.4245    1.8162    0.8633 C   0  0  0  0  0  0  0  0  0  0  0  0
    0.7634   -2.7220    0.9622 C   0  0  0  0  0  0  0  0  0  0  0  0
   -3.1987    2.6128    0.0197 C   0  0  0  0  0  0  0  0  0  0  0  0
   -4.1317    2.0236   -0.8336 C   0  0  0  0  0  0  0  0  0  0  0  0
    2.3323   -0.8987    1.1877 C   0  0  0  0  0  0  0  0  0  0  0  0
    1.7604   -2.0689    1.6870 C   0  0  0  0  0  0  0  0  0  0  0  0
    3.8434    0.8804   -0.4618 C   0  0  0  0  0  0  0  0  0  0  0  0
   -3.0325    4.0575    0.0288 C   0  0  0  0  0  0  0  0  0  0  0  0
    4.6543   -0.1905   -0.8378 C   0  0  0  0  0  0  0  0  0  0  0  0
    4.4208    2.0718   -0.0229 C   0  0  0  0  0  0  0  0  0  0  0  0
   -0.8914    0.3433    2.5229 C   0  0  0  0  0  0  0  0  0  0  0  0
    6.0425   -0.0698   -0.7750 C   0  0  0  0  0  0  0  0  0  0  0  0
    5.8091    2.1926    0.0396 C   0  0  0  0  0  0  0  0  0  0  0  0
    6.6200    1.1219   -0.3364 C   0  0  0  0  0  0  0  0  0  0  0  0
   -2.7748   -4.0843   -1.9591 H   0  0  0  0  0  0  0  0  0  0  0  0
   -3.6572   -4.1543   -0.4217 H   0  0  0  0  0  0  0  0  0  0  0  0
   -4.3873   -2.2423   -1.8022 H   0  0  0  0  0  0  0  0  0  0  0  0
   -2.7301   -1.6171   -1.8732 H   0  0  0  0  0  0  0  0  0  0  0  0
   -1.7886   -3.1276    0.7632 H   0  0  0  0  0  0  0  0  0  0  0  0
   -1.2573   -4.6002   -0.0904 H   0  0  0  0  0  0  0  0  0  0  0  0
   -5.0267    0.1932   -1.5072 H   0  0  0  0  0  0  0  0  0  0  0  0
    0.5773   -0.6311   -1.7135 H   0  0  0  0  0  0  0  0  0  0  0  0
   -1.7147    2.3276    1.5051 H   0  0  0  0  0  0  0  0  0  0  0  0
    0.3637   -3.6440    1.3737 H   0  0  0  0  0  0  0  0  0  0  0  0
   -4.7468    2.6246   -1.4982 H   0  0  0  0  0  0  0  0  0  0  0  0
    3.0905   -0.3989    1.7848 H   0  0  0  0  0  0  0  0  0  0  0  0
    2.0915   -2.4712    2.6400 H   0  0  0  0  0  0  0  0  0  0  0  0
   -2.2796    4.4669    0.7236 H   0  0  0  0  0  0  0  0  0  0  0  0
    4.2316   -1.1223   -1.2041 H   0  0  0  0  0  0  0  0  0  0  0  0
    3.7939    2.9088    0.2719 H   0  0  0  0  0  0  0  0  0  0  0  0
   -0.3748   -0.4167    3.1172 H   0  0  0  0  0  0  0  0  0  0  0  0
   -1.4024    1.0008    3.2348 H   0  0  0  0  0  0  0  0  0  0  0  0
   -0.1312    0.8760    1.9431 H   0  0  0  0  0  0  0  0  0  0  0  0
    6.6742   -0.9017   -1.0724 H   0  0  0  0  0  0  0  0  0  0  0  0
    6.2586    3.1204    0.3812 H   0  0  0  0  0  0  0  0  0  0  0  0
    7.7009    1.2162   -0.2888 H   0  0  0  0  0  0  0  0  0  0  0  0
  1  7  1  0  0  0  0
  1  9  1  0  0  0  0
  2  8  1  0  0  0  0
  2 10  1  0  0  0  0
  3 14  1  0  0  0  0
  3 21  1  0  0  0  0
  4 11  1  0  0  0  0
  4 25  1  0  0  0  0
  5 22  2  0  0  0  0
  6  7  1  0  0  0  0
  6  8  1  0  0  0  0
  6 29  1  0  0  0  0
  6 30  1  0  0  0  0
  7 31  1  0  0  0  0
  7 32  1  0  0  0  0
  8 33  1  0  0  0  0
  8 34  1  0  0  0  0
  9 11  2  0  0  0  0
  9 12  1  0  0  0  0
 10 13  2  0  0  0  0
 10 16  1  0  0  0  0
 11 15  1  0  0  0  0
 12 18  2  0  0  0  0
 12 35  1  0  0  0  0
 13 14  1  0  0  0  0
 13 36  1  0  0  0  0
 14 19  2  0  0  0  0
 15 17  2  0  0  0  0
 15 37  1  0  0  0  0
 16 20  2  0  0  0  0
 16 38  1  0  0  0  0
 17 18  1  0  0  0  0
 17 22  1  0  0  0  0
 18 39  1  0  0  0  0
 19 20  1  0  0  0  0
 19 40  1  0  0  0  0
 20 41  1  0  0  0  0
 21 23  2  0  0  0  0
 21 24  1  0  0  0  0
 22 42  1  0  0  0  0
 23 26  1  0  0  0  0
 23 43  1  0  0  0  0
 24 27  2  0  0  0  0
 24 44  1  0  0  0  0
 25 45  1  0  0  0  0
 25 46  1  0  0  0  0
 25 47  1  0  0  0  0
 26 28  2  0  0  0  0
 26 48  1  0  0  0  0
 27 28  1  0  0  0  0
 27 49  1  0  0  0  0
 28 50  1  0  0  0  0
M  END
> <PUBCHEM_COMPOUND_CID>
2285789

> <PUBCHEM_CONFORMER_RMSD>
1.2

> <PUBCHEM_CONFORMER_DIVERSEORDER>
5
96
41
24
101
59
40
138
32
44
73
92
47
133
118
109
10
130
35
126
11
129
142
82
12
104
113
61
70
94
83
77
114
102
84
1
27
143
18
98
136
22
107
6
86
127
31
134
99
88
50
90
33
128
139
75
81
34
121
51
123
85
91
149
8
103
97
7
106
93
45
17
95
48
146
89
74
87
53
37
120
38
108
43
9
25
46
66
76
30
3
116
21
64
80
54
23
135
132
55
58
65
140
28
14
2
79
72
39
144
105
71
15
63
145
147
111
100
67
112
42
69
141
36
56
57
137
19
62
26
68
49
29
119
124
131
122
115
52
148
4
60
125
110
117
78
13
16
20

> <PUBCHEM_MMFF94_PARTIAL_CHARGES>
40
1 -0.36
10 0.08
11 0.08
12 -0.15
13 -0.15
14 0.08
15 -0.15
16 -0.15
17 0.09
18 -0.15
19 -0.15
2 -0.36
20 -0.15
21 0.08
22 0.42
23 -0.15
24 -0.15
25 0.28
26 -0.15
27 -0.15
28 -0.15
3 -0.17
35 0.15
36 0.15
37 0.15
38 0.15
39 0.15
4 -0.36
40 0.15
41 0.15
42 0.06
43 0.15
44 0.15
48 0.15
49 0.15
5 -0.57
50 0.15
7 0.28
8 0.28
9 0.08

> <PUBCHEM_EFFECTIVE_ROTOR_COUNT>
10

> <PUBCHEM_PHARMACOPHORE_FEATURES>
8
1 1 acceptor
1 2 acceptor
1 3 acceptor
1 4 acceptor
1 5 acceptor
6 10 13 14 16 19 20 rings
6 21 23 24 26 27 28 rings
6 9 11 12 15 17 18 rings

> <PUBCHEM_HEAVY_ATOM_COUNT>
28

> <PUBCHEM_ATOM_DEF_STEREO_COUNT>
0

> <PUBCHEM_ATOM_UDEF_STEREO_COUNT>
0

> <PUBCHEM_BOND_DEF_STEREO_COUNT>
0

> <PUBCHEM_BOND_UDEF_STEREO_COUNT>
0

> <PUBCHEM_ISOTOPIC_ATOM_COUNT>
0

> <PUBCHEM_COMPONENT_COUNT>
1

> <PUBCHEM_CACTVS_TAUTO_COUNT>
1

> <PUBCHEM_CONFORMER_ID>
0022E0DD00000005

> <PUBCHEM_MMFF94_ENERGY>
105.7772

> <PUBCHEM_FEATURE_SELFOVERLAP>
40.604

> <PUBCHEM_SHAPE_FINGERPRINT>
100830 39 18339924913581987532
10087517 78 18195804292187768908
10577160 183 18334858282829379026
10670039 82 18340199786639965822
10675989 125 17474389071864855281
10838868 217 17396108281042427904
10871710 139 18410572924801113271
11370993 70 17837753553393366659
11434127 23 18341048605442831854
12107183 9 18191857930371067466
12788726 201 18336535123228087931
13103583 49 11097862851979179477
14114206 34 18126260138586124775
14251751 93 18412547630298943014
14251764 75 18125728876975707609
14790565 3 18336546015312259446
15463212 79 18408319982320600499
15575132 122 18409729560675032557
17492 54 18340752828626224127
17899979 129 17834681491566695757
17980427 26 17386842807934185898
19958102 18 18059305335274223774
20775438 99 15829688421634684351
21033648 144 18130511954678250912
21033650 10 18191894368941724094
22393880 68 18341889675882425744
22907989 373 18267000831413952807
23569943 247 16734917148800840290
2838139 119 18335702702794526848
3493558 16 17902233652416095172
469060 322 18122363521043897379
5283173 99 18342459287851933716
550186 7 18200608015307397382
6034566 193 18198914613051389641
7808743 9 18412823581852758791
9980921 221 18265071248742730956
9981440 41 18186809058184147737

> <PUBCHEM_SHAPE_MULTIPOLES>
546.88
12.4
4.96
1.45
18.51
1.78
0.8
8.93
-3.97
-6.8
-0.99
-0.43
-0.45
-0.8

> <PUBCHEM_SHAPE_SELFOVERLAP>
1172.834

> <PUBCHEM_SHAPE_VOLUME>
301.9

> <PUBCHEM_COORDINATE_TYPE>
2
5
10

$$$$
