2997881
  -OEChem-02101610503D

 28 29  0     0  0  0  0  0  0999 V2000
   -0.1583    2.3777    0.0517 S   0  0  0  0  0  0  0  0  0  0  0  0
   -2.7613   -1.4130   -1.0638 O   0  0  0  0  0  0  0  0  0  0  0  0
   -2.7523    1.8409    0.3974 N   0  0  0  0  0  0  0  0  0  0  0  0
   -2.3975   -1.6453    1.1743 N   0  0  0  0  0  0  0  0  0  0  0  0
    2.0119   -1.7855    0.4046 C   0  0  0  0  0  0  0  0  0  0  0  0
    3.3018   -0.9947    0.1669 C   0  0  0  0  0  0  0  0  0  0  0  0
    0.8873   -1.4627   -0.5802 C   0  0  0  0  0  0  0  0  0  0  0  0
    3.2207    0.4993    0.4948 C   0  0  0  0  0  0  0  0  0  0  0  0
    0.2300   -0.1430   -0.3152 C   0  0  0  0  0  0  0  0  0  0  0  0
    2.3611    1.3104   -0.4762 C   0  0  0  0  0  0  0  0  0  0  0  0
    0.8965    1.0694   -0.2732 C   0  0  0  0  0  0  0  0  0  0  0  0
   -1.1716    0.0298   -0.0734 C   0  0  0  0  0  0  0  0  0  0  0  0
   -1.5141    1.3451    0.1413 C   0  0  0  0  0  0  0  0  0  0  0  0
   -2.1542   -1.0284   -0.0490 C   0  0  0  0  0  0  0  0  0  0  0  0
    1.6714   -1.6435    1.4379 H   0  0  0  0  0  0  0  0  0  0  0  0
    2.2551   -2.8505    0.2985 H   0  0  0  0  0  0  0  0  0  0  0  0
    4.0819   -1.4326    0.8027 H   0  0  0  0  0  0  0  0  0  0  0  0
    3.6372   -1.1312   -0.8684 H   0  0  0  0  0  0  0  0  0  0  0  0
    0.1477   -2.2696   -0.5225 H   0  0  0  0  0  0  0  0  0  0  0  0
    1.2702   -1.4755   -1.6084 H   0  0  0  0  0  0  0  0  0  0  0  0
    4.2413    0.9007    0.4528 H   0  0  0  0  0  0  0  0  0  0  0  0
    2.8730    0.6367    1.5263 H   0  0  0  0  0  0  0  0  0  0  0  0
    2.6295    1.0708   -1.5125 H   0  0  0  0  0  0  0  0  0  0  0  0
    2.5945    2.3732   -0.3341 H   0  0  0  0  0  0  0  0  0  0  0  0
   -3.5762    1.2510    0.4569 H   0  0  0  0  0  0  0  0  0  0  0  0
   -2.9055    2.8336    0.5427 H   0  0  0  0  0  0  0  0  0  0  0  0
   -1.9152   -1.3685    2.0236 H   0  0  0  0  0  0  0  0  0  0  0  0
   -3.0706   -2.4003    1.2530 H   0  0  0  0  0  0  0  0  0  0  0  0
  1 11  1  0  0  0  0
  1 13  1  0  0  0  0
  2 14  2  0  0  0  0
  3 13  1  0  0  0  0
  3 25  1  0  0  0  0
  3 26  1  0  0  0  0
  4 14  1  0  0  0  0
  4 27  1  0  0  0  0
  4 28  1  0  0  0  0
  5  6  1  0  0  0  0
  5  7  1  0  0  0  0
  5 15  1  0  0  0  0
  5 16  1  0  0  0  0
  6  8  1  0  0  0  0
  6 17  1  0  0  0  0
  6 18  1  0  0  0  0
  7  9  1  0  0  0  0
  7 19  1  0  0  0  0
  7 20  1  0  0  0  0
  8 10  1  0  0  0  0
  8 21  1  0  0  0  0
  8 22  1  0  0  0  0
  9 11  2  0  0  0  0
  9 12  1  0  0  0  0
 10 11  1  0  0  0  0
 10 23  1  0  0  0  0
 10 24  1  0  0  0  0
 12 13  2  0  0  0  0
 12 14  1  0  0  0  0
M  END
> <PUBCHEM_COMPOUND_CID>
2997881

> <PUBCHEM_CONFORMER_RMSD>
0.6

> <PUBCHEM_CONFORMER_DIVERSEORDER>
1
6
2
5
3
4

> <PUBCHEM_MMFF94_PARTIAL_CHARGES>
15
1 -0.08
10 0.18
11 -0.14
12 -0.09
13 0.12
14 0.72
2 -0.57
25 0.4
26 0.4
27 0.37
28 0.37
3 -0.88
4 -0.8
7 0.18
9 -0.18

> <PUBCHEM_EFFECTIVE_ROTOR_COUNT>
2

> <PUBCHEM_PHARMACOPHORE_FEATURES>
6
1 2 acceptor
1 3 cation
1 3 donor
1 4 donor
5 1 9 11 12 13 rings
7 5 6 7 8 9 10 11 rings

> <PUBCHEM_HEAVY_ATOM_COUNT>
14

> <PUBCHEM_ATOM_DEF_STEREO_COUNT>
0

> <PUBCHEM_ATOM_UDEF_STEREO_COUNT>
0

> <PUBCHEM_BOND_DEF_STEREO_COUNT>
0

> <PUBCHEM_BOND_UDEF_STEREO_COUNT>
0

> <PUBCHEM_ISOTOPIC_ATOM_COUNT>
0

> <PUBCHEM_COMPONENT_COUNT>
1

> <PUBCHEM_CACTVS_TAUTO_COUNT>
5

> <PUBCHEM_CONFORMER_ID>
002DBE7900000001

> <PUBCHEM_MMFF94_ENERGY>
24.3613

> <PUBCHEM_FEATURE_SELFOVERLAP>
30.468

> <PUBCHEM_SHAPE_FINGERPRINT>
10967382 1 18194965128101775604
11132069 177 18340478963967201320
11680986 33 18196664985936916895
12251169 10 18194397793266177184
12382932 28 18340770342895896984
12423570 1 8853747593953871828
12524768 44 18053105025368260806
12696612 119 18336834108696137356
12932764 1 17917715746464986376
13140716 1 18411139091463415440
13380535 21 18267882608952120604
13380535 76 18268989787175589381
15775835 57 18343304734710229048
16945 1 18194967576180295876
17990270 104 18410293575785793162
20201158 50 18188202208030845643
20525323 117 18413105065229415531
20871998 184 18272371919344597327
21501502 16 18410573963776964916
2334 1 18410858784628105772
23388829 49 18269546307404667652
23402539 116 18127677254561110381
23463225 33 18409167701485217580
23552423 10 18334018289318786740
2748010 2 18412827971325094892
3312278 4 18409452466496573752
53812653 8 18193287505634371668
69090 78 18268143154901519829
81228 2 18264774255131092633
8809292 202 18263650554532400746

> <PUBCHEM_SHAPE_MULTIPOLES>
276.13
4.79
2.47
0.84
1.04
0.46
0.01
-1.01
0.54
-0.64
0.12
-0.21
-0.21
-0.25

> <PUBCHEM_SHAPE_SELFOVERLAP>
569.051

> <PUBCHEM_SHAPE_VOLUME>
159.5

> <PUBCHEM_COORDINATE_TYPE>
2
5
10

$$$$
