776870
  -OEChem-02101610513D

 30 31  0     0  0  0  0  0  0999 V2000
    3.5703   -1.4779   -0.3123 O   0  0  0  0  0  0  0  0  0  0  0  0
    2.4986    2.4660   -0.1460 O   0  0  0  0  0  0  0  0  0  0  0  0
    4.0439    1.0370    0.7120 O   0  0  0  0  0  0  0  0  0  0  0  0
   -1.7683   -0.0486    0.0064 N   0  0  0  0  0  0  0  0  0  0  0  0
   -2.5393   -0.0663    1.1501 C   0  0  0  0  0  0  0  0  0  0  0  0
   -2.5526    0.3795   -1.0444 C   0  0  0  0  0  0  0  0  0  0  0  0
   -0.4330   -0.4004   -0.0726 C   0  0  0  0  0  0  0  0  0  0  0  0
   -3.8110    0.3494    0.8225 C   0  0  0  0  0  0  0  0  0  0  0  0
   -3.8193    0.6316   -0.5658 C   0  0  0  0  0  0  0  0  0  0  0  0
    0.5555    0.5650    0.1185 C   0  0  0  0  0  0  0  0  0  0  0  0
   -0.0749   -1.7211   -0.3426 C   0  0  0  0  0  0  0  0  0  0  0  0
   -1.9965   -0.4800    2.4627 C   0  0  0  0  0  0  0  0  0  0  0  0
   -2.0262    0.5121   -2.4203 C   0  0  0  0  0  0  0  0  0  0  0  0
    1.9021    0.2095    0.0396 C   0  0  0  0  0  0  0  0  0  0  0  0
    1.2716   -2.0766   -0.4214 C   0  0  0  0  0  0  0  0  0  0  0  0
    2.2601   -1.1113   -0.2301 C   0  0  0  0  0  0  0  0  0  0  0  0
    2.9189    1.2321    0.2434 C   0  0  0  0  0  0  0  0  0  0  0  0
   -4.6436    0.4408    1.5063 H   0  0  0  0  0  0  0  0  0  0  0  0
   -4.6596    0.9807   -1.1499 H   0  0  0  0  0  0  0  0  0  0  0  0
    0.2599    1.5882    0.3414 H   0  0  0  0  0  0  0  0  0  0  0  0
   -0.8343   -2.4847   -0.4937 H   0  0  0  0  0  0  0  0  0  0  0  0
   -1.6368   -1.5135    2.4325 H   0  0  0  0  0  0  0  0  0  0  0  0
   -1.1719    0.1706    2.7710 H   0  0  0  0  0  0  0  0  0  0  0  0
   -2.7676   -0.4230    3.2385 H   0  0  0  0  0  0  0  0  0  0  0  0
   -1.2033    1.2331   -2.4597 H   0  0  0  0  0  0  0  0  0  0  0  0
   -1.6690   -0.4505   -2.8002 H   0  0  0  0  0  0  0  0  0  0  0  0
   -2.8058    0.8660   -3.1033 H   0  0  0  0  0  0  0  0  0  0  0  0
    1.5359   -3.1093   -0.6326 H   0  0  0  0  0  0  0  0  0  0  0  0
    3.6223   -2.4296   -0.5057 H   0  0  0  0  0  0  0  0  0  0  0  0
    3.1894    3.1483   -0.0055 H   0  0  0  0  0  0  0  0  0  0  0  0
  1 16  1  0  0  0  0
  1 29  1  0  0  0  0
  2 17  1  0  0  0  0
  2 30  1  0  0  0  0
  3 17  2  0  0  0  0
  4  5  1  0  0  0  0
  4  6  1  0  0  0  0
  4  7  1  0  0  0  0
  5  8  2  0  0  0  0
  5 12  1  0  0  0  0
  6  9  2  0  0  0  0
  6 13  1  0  0  0  0
  7 10  2  0  0  0  0
  7 11  1  0  0  0  0
  8  9  1  0  0  0  0
  8 18  1  0  0  0  0
  9 19  1  0  0  0  0
 10 14  1  0  0  0  0
 10 20  1  0  0  0  0
 11 15  2  0  0  0  0
 11 21  1  0  0  0  0
 12 22  1  0  0  0  0
 12 23  1  0  0  0  0
 12 24  1  0  0  0  0
 13 25  1  0  0  0  0
 13 26  1  0  0  0  0
 13 27  1  0  0  0  0
 14 16  2  0  0  0  0
 14 17  1  0  0  0  0
 15 16  1  0  0  0  0
 15 28  1  0  0  0  0
M  END
> <PUBCHEM_COMPOUND_CID>
776870

> <PUBCHEM_CONFORMER_RMSD>
0.6

> <PUBCHEM_CONFORMER_DIVERSEORDER>
1

> <PUBCHEM_MMFF94_PARTIAL_CHARGES>
24
1 -0.53
10 -0.15
11 -0.15
12 0.18
13 0.18
14 0.09
15 -0.15
16 0.08
17 0.63
18 0.15
19 0.15
2 -0.65
20 0.15
21 0.15
28 0.15
29 0.45
3 -0.57
30 0.5
4 0.33
5 -0.33
6 -0.33
7 -0.02
8 -0.15
9 -0.15

> <PUBCHEM_EFFECTIVE_ROTOR_COUNT>
2

> <PUBCHEM_PHARMACOPHORE_FEATURES>
7
1 1 donor
1 2 acceptor
1 3 acceptor
1 4 cation
3 2 3 17 anion
5 4 5 6 8 9 rings
6 7 10 11 14 15 16 rings

> <PUBCHEM_HEAVY_ATOM_COUNT>
17

> <PUBCHEM_ATOM_DEF_STEREO_COUNT>
0

> <PUBCHEM_ATOM_UDEF_STEREO_COUNT>
0

> <PUBCHEM_BOND_DEF_STEREO_COUNT>
0

> <PUBCHEM_BOND_UDEF_STEREO_COUNT>
0

> <PUBCHEM_ISOTOPIC_ATOM_COUNT>
0

> <PUBCHEM_COMPONENT_COUNT>
1

> <PUBCHEM_CACTVS_TAUTO_COUNT>
4

> <PUBCHEM_CONFORMER_ID>
000BDAA600000001

> <PUBCHEM_MMFF94_ENERGY>
61.2158

> <PUBCHEM_FEATURE_SELFOVERLAP>
35.578

> <PUBCHEM_SHAPE_FINGERPRINT>
10366900 7 17749113274565501547
10608611 8 18261671480847024757
11471102 20 18412542076737333308
11543360 7 14835840754956716936
11640471 11 17489315174038986473
11725454 13 17389901769393776757
12236239 1 17346314865347725823
12670545 47 17968105239047677111
13294875 104 16233610012623985053
13296909 8 15141225646820645949
13538477 17 16773787100243401119
13581323 91 15791735187345367675
13583140 156 17313646240045233288
15219456 202 18260548905117976191
15309172 13 18410858801744606427
15342168 16 18339086011389090957
15653759 3 17603588508292884322
15669948 3 16056871438484045405
15775835 57 17775567545978636873
16945 1 18341051800703534638
1813 80 17485385378148789110
18175812 5 18113908156039576287
18186145 218 18272939314541567334
18219364 16 18337391642316139720
19049666 15 17678169387132818119
19422 9 17561361764576449919
20279233 1 17967253091813741955
204376 136 18340768268695731200
20645464 45 17749105599922946385
20645476 183 17275098449339697621
20645477 70 18341327790843471766
20715346 28 18113624498987266610
20871999 31 15123218971084692877
21486144 27 18334297556734859791
21524375 3 18268141140414035070
21639500 275 18271233997645016404
22112679 90 16845570877115210723
22854114 111 18413674595072708350
228727 97 17132115766624592019
23175994 123 18191592939046159550
23402539 116 17168416164939034211
23493267 7 17240766116836136076
23557571 272 17386016022724420631
23559900 14 17023189262679699258
25 1 18342174483858785412
2748010 2 18340214106240415150
3082319 5 17132112454867170676
474 4 18273213127270475464
6049 1 17967256372936751532
77492 1 17346596335871298095
81228 2 17755024438171524706
8272917 22 17986403200346898647
90316 7 15791728599071400917
9981440 41 16409817054997115848

> <PUBCHEM_SHAPE_MULTIPOLES>
327.26
6.68
1.75
1.61
0.78
0.03
0.09
1.81
0.82
1.79
-0.19
-1.66
-0.02
1.17

> <PUBCHEM_SHAPE_SELFOVERLAP>
711.263

> <PUBCHEM_SHAPE_VOLUME>
181.7

> <PUBCHEM_COORDINATE_TYPE>
2
5
10

$$$$
