595811
  -OEChem-02101610513D

 31 33  0     0  0  0  0  0  0999 V2000
    1.1647    2.0828   -0.1338 S   0  0  0  0  0  0  0  0  0  0  0  0
    4.1229    2.6461   -0.0105 S   0  0  0  0  0  0  0  0  0  0  0  0
    2.8553    0.2041    0.3596 N   0  0  0  0  0  0  0  0  0  0  0  0
   -1.6521    1.1674   -0.1749 N   0  0  0  0  0  0  0  0  0  0  0  0
   -1.4024   -0.9970    0.2652 N   0  0  0  0  0  0  0  0  0  0  0  0
    1.4010   -1.7522    0.6176 N   0  0  0  0  0  0  0  0  0  0  0  0
    0.6025    0.4668    0.1331 C   0  0  0  0  0  0  0  0  0  0  0  0
   -0.7808    0.1478    0.0901 C   0  0  0  0  0  0  0  0  0  0  0  0
    1.5931   -0.4159    0.3796 C   0  0  0  0  0  0  0  0  0  0  0  0
   -2.9204    0.6462   -0.1702 C   0  0  0  0  0  0  0  0  0  0  0  0
   -2.7379   -0.7059    0.1066 C   0  0  0  0  0  0  0  0  0  0  0  0
    4.0589   -0.5896    0.6057 C   0  0  0  0  0  0  0  0  0  0  0  0
    2.8455    1.5780    0.0952 C   0  0  0  0  0  0  0  0  0  0  0  0
   -4.1735    1.2238   -0.3780 C   0  0  0  0  0  0  0  0  0  0  0  0
   -3.8609   -1.5467    0.1844 C   0  0  0  0  0  0  0  0  0  0  0  0
   -5.2803    0.3722   -0.2967 C   0  0  0  0  0  0  0  0  0  0  0  0
   -5.1290   -0.9886   -0.0208 C   0  0  0  0  0  0  0  0  0  0  0  0
    4.5682   -1.1187   -0.6936 C   0  0  0  0  0  0  0  0  0  0  0  0
    4.7252   -2.4207   -0.9585 C   0  0  0  0  0  0  0  0  0  0  0  0
   -1.4133    2.1359   -0.3451 H   0  0  0  0  0  0  0  0  0  0  0  0
    4.8317    0.0506    1.0441 H   0  0  0  0  0  0  0  0  0  0  0  0
    3.8656   -1.3707    1.3483 H   0  0  0  0  0  0  0  0  0  0  0  0
   -4.2882    2.2802   -0.5921 H   0  0  0  0  0  0  0  0  0  0  0  0
   -3.7539   -2.6054    0.3982 H   0  0  0  0  0  0  0  0  0  0  0  0
    0.4655   -2.1387    0.6116 H   0  0  0  0  0  0  0  0  0  0  0  0
    2.1894   -2.3730    0.7334 H   0  0  0  0  0  0  0  0  0  0  0  0
   -6.2769    0.7782   -0.4516 H   0  0  0  0  0  0  0  0  0  0  0  0
   -6.0082   -1.6252    0.0359 H   0  0  0  0  0  0  0  0  0  0  0  0
    4.8426   -0.4022   -1.4638 H   0  0  0  0  0  0  0  0  0  0  0  0
    5.1076   -2.7434   -1.9206 H   0  0  0  0  0  0  0  0  0  0  0  0
    4.4770   -3.1821   -0.2274 H   0  0  0  0  0  0  0  0  0  0  0  0
  1  7  1  0  0  0  0
  1 13  1  0  0  0  0
  2 13  2  0  0  0  0
  3  9  1  0  0  0  0
  3 12  1  0  0  0  0
  3 13  1  0  0  0  0
  4  8  1  0  0  0  0
  4 10  1  0  0  0  0
  4 20  1  0  0  0  0
  5  8  2  0  0  0  0
  5 11  1  0  0  0  0
  6  9  1  0  0  0  0
  6 25  1  0  0  0  0
  6 26  1  0  0  0  0
  7  8  1  0  0  0  0
  7  9  2  0  0  0  0
 10 11  1  0  0  0  0
 10 14  2  0  0  0  0
 11 15  2  0  0  0  0
 12 18  1  0  0  0  0
 12 21  1  0  0  0  0
 12 22  1  0  0  0  0
 14 16  1  0  0  0  0
 14 23  1  0  0  0  0
 15 17  1  0  0  0  0
 15 24  1  0  0  0  0
 16 17  2  0  0  0  0
 16 27  1  0  0  0  0
 17 28  1  0  0  0  0
 18 19  2  0  0  0  0
 18 29  1  0  0  0  0
 19 30  1  0  0  0  0
 19 31  1  0  0  0  0
M  END
> <PUBCHEM_COMPOUND_CID>
595811

> <PUBCHEM_CONFORMER_RMSD>
0.6

> <PUBCHEM_CONFORMER_DIVERSEORDER>
1
4
9
7
8
5
10
3
2
11
6

> <PUBCHEM_MMFF94_PARTIAL_CHARGES>
29
1 -0.24
10 -0.15
11 0.23
12 0.44
13 0.58
14 -0.15
15 -0.15
16 -0.15
17 -0.15
18 -0.29
19 -0.3
2 -0.38
20 0.27
23 0.15
24 0.15
25 0.4
26 0.4
27 0.15
28 0.15
29 0.15
3 -0.47
30 0.15
31 0.15
4 0.03
5 -0.57
6 -0.9
7 0.15
8 0.14
9 0.21

> <PUBCHEM_EFFECTIVE_ROTOR_COUNT>
3

> <PUBCHEM_PHARMACOPHORE_FEATURES>
9
1 19 hydrophobe
1 2 acceptor
1 4 donor
1 6 cation
1 6 donor
3 4 5 8 cation
5 1 3 7 9 13 rings
5 4 5 8 10 11 rings
6 10 11 14 15 16 17 rings

> <PUBCHEM_HEAVY_ATOM_COUNT>
19

> <PUBCHEM_ATOM_DEF_STEREO_COUNT>
0

> <PUBCHEM_ATOM_UDEF_STEREO_COUNT>
0

> <PUBCHEM_BOND_DEF_STEREO_COUNT>
0

> <PUBCHEM_BOND_UDEF_STEREO_COUNT>
0

> <PUBCHEM_ISOTOPIC_ATOM_COUNT>
0

> <PUBCHEM_COMPONENT_COUNT>
1

> <PUBCHEM_CACTVS_TAUTO_COUNT>
3

> <PUBCHEM_CONFORMER_ID>
0009176300000001

> <PUBCHEM_MMFF94_ENERGY>
40.7154

> <PUBCHEM_FEATURE_SELFOVERLAP>
45.778

> <PUBCHEM_SHAPE_FINGERPRINT>
10366900 7 17530969059650058233
11471102 20 18408599292338342633
12107183 9 17983024349037332185
12236239 1 18131070455161026393
12403259 415 18040710351627935013
12916754 54 18413111653894065449
13167823 11 18412259558294793535
13533116 47 18131070450027328193
13675066 3 18130779070850758160
13955234 65 18201437034511844768
14341114 176 18408890659210129585
14866123 147 17623015594792671088
15196674 1 18408602591184319393
15536298 74 18409727391363321392
15788980 27 17847057779268672805
15848702 151 18343585109879756950
15961568 22 17604148250402485756
17492 89 18339924938639992031
17804303 29 18407760326685897941
17834072 33 18412544348669583285
17844677 252 18411987944415405345
1813 80 16805318920427417525
18186145 218 17967524683864976013
19784866 240 17988371364651864470
200 152 18131066043870852339
20374829 77 18336827490109602414
20554085 129 17844239847865347568
20645477 70 18411417319587203390
21267235 1 18408891728646475747
21279426 13 18337669711674221053
21452121 103 18339915017845507944
221357 26 18410291393652328149
221490 88 18336553814587779698
2215653 11 18340482279576491527
23402539 116 18131060525165256045
23559900 14 18411695487091027592
239999 70 18410855465156644530
2871803 45 18260543420291894915
29717793 49 18272928315373064965
3004659 81 18187932729836841622
312423 11 18201452358433125048
335352 9 18337670819812323421
3421961 26 18342455924897744258
3545911 37 18337391659612371632
4214541 1 18409164390350353361
42630746 31 18410852200976140432
465052 167 18131356276354965014
474 4 17531526623598997716
4990 188 18410013213031512918
5104073 3 18335982042908696177
5281201 14 18409730668502483204
59755656 215 18188768345551373911
633830 44 18261384572467587743
7364860 26 18341895234134414216
77779 3 18409728491117522777
90127 26 18114186336855674281
960060 61 18113628871860144798
9709674 26 18263365944208549491
9971528 1 18410853270059234004

> <PUBCHEM_SHAPE_MULTIPOLES>
378.79
11.85
2.44
0.76
4.82
0.33
0.04
-2.51
1.66
-3.27
0.31
-0.4
-0.16
0.88

> <PUBCHEM_SHAPE_SELFOVERLAP>
804.039

> <PUBCHEM_SHAPE_VOLUME>
213.5

> <PUBCHEM_COORDINATE_TYPE>
2
5
10

$$$$
