3137781
  -OEChem-02101610513D

 53 56  0     1  0  0  0  0  0999 V2000
    5.4006    3.1791   -0.0947 O   0  0  0  0  0  0  0  0  0  0  0  0
    2.6380   -1.3347   -0.1262 O   0  0  0  0  0  0  0  0  0  0  0  0
    7.0391    1.6092    0.1210 O   0  0  0  0  0  0  0  0  0  0  0  0
   -4.4485    2.2827    0.5883 O   0  0  0  0  0  0  0  0  0  0  0  0
   -4.0218   -2.1934   -0.6423 O   0  0  0  0  0  0  0  0  0  0  0  0
    1.8130    0.8015   -0.6869 N   0  0  0  0  0  0  0  0  0  0  0  0
   -3.7295    0.1081   -0.0822 N   0  0  0  0  0  0  0  0  0  0  0  0
    4.1570    0.3848   -0.7359 C   0  0  1  0  0  0  0  0  0  0  0  0
    4.7289    1.0134    0.5323 C   0  0  1  0  0  0  0  0  0  0  0  0
    5.0615   -0.7038   -1.3213 C   0  0  0  0  0  0  0  0  0  0  0  0
    5.1834   -0.0225    1.5651 C   0  0  0  0  0  0  0  0  0  0  0  0
    5.7694   -1.5835   -0.3121 C   0  0  0  0  0  0  0  0  0  0  0  0
    5.8045   -1.2853    1.0048 C   0  0  0  0  0  0  0  0  0  0  0  0
    2.7842   -0.1681   -0.4749 C   0  0  0  0  0  0  0  0  0  0  0  0
    5.8616    1.9322    0.1701 C   0  0  0  0  0  0  0  0  0  0  0  0
    6.4296   -2.7860   -0.9358 C   0  0  0  0  0  0  0  0  0  0  0  0
    6.4334   -2.1543    2.0631 C   0  0  0  0  0  0  0  0  0  0  0  0
    0.4349    0.6293   -0.5365 C   0  0  0  0  0  0  0  0  0  0  0  0
   -0.4305    1.6938   -0.7840 C   0  0  0  0  0  0  0  0  0  0  0  0
   -0.0725   -0.6070   -0.1396 C   0  0  0  0  0  0  0  0  0  0  0  0
   -2.3156    0.2854   -0.2370 C   0  0  0  0  0  0  0  0  0  0  0  0
   -1.8065    1.5217   -0.6341 C   0  0  0  0  0  0  0  0  0  0  0  0
   -1.4486   -0.7790    0.0103 C   0  0  0  0  0  0  0  0  0  0  0  0
   -5.9415    0.5054    0.3200 C   0  0  0  0  0  0  0  0  0  0  0  0
   -5.8109   -0.8278   -0.0146 C   0  0  0  0  0  0  0  0  0  0  0  0
   -4.6149    1.1145    0.2871 C   0  0  0  0  0  0  0  0  0  0  0  0
   -4.4001   -1.0935   -0.2813 C   0  0  0  0  0  0  0  0  0  0  0  0
   -7.1667    1.0647    0.6260 C   0  0  0  0  0  0  0  0  0  0  0  0
   -6.8986   -1.6772   -0.0671 C   0  0  0  0  0  0  0  0  0  0  0  0
   -8.2828    0.2249    0.5811 C   0  0  0  0  0  0  0  0  0  0  0  0
   -8.1500   -1.1345    0.2372 C   0  0  0  0  0  0  0  0  0  0  0  0
    4.0620    1.1537   -1.5166 H   0  0  0  0  0  0  0  0  0  0  0  0
    3.9699    1.6348    1.0288 H   0  0  0  0  0  0  0  0  0  0  0  0
    5.8369   -0.2211   -1.9318 H   0  0  0  0  0  0  0  0  0  0  0  0
    4.4821   -1.3351   -2.0083 H   0  0  0  0  0  0  0  0  0  0  0  0
    4.3100   -0.3251    2.1588 H   0  0  0  0  0  0  0  0  0  0  0  0
    5.8871    0.4434    2.2676 H   0  0  0  0  0  0  0  0  0  0  0  0
    5.6736   -3.5255   -1.2184 H   0  0  0  0  0  0  0  0  0  0  0  0
    7.1612   -3.2706   -0.2859 H   0  0  0  0  0  0  0  0  0  0  0  0
    6.9738   -2.4894   -1.8396 H   0  0  0  0  0  0  0  0  0  0  0  0
    6.6370   -3.1738    1.7289 H   0  0  0  0  0  0  0  0  0  0  0  0
    5.7612   -2.2444    2.9239 H   0  0  0  0  0  0  0  0  0  0  0  0
    7.3721   -1.7083    2.4069 H   0  0  0  0  0  0  0  0  0  0  0  0
    2.1124    1.7317   -0.9702 H   0  0  0  0  0  0  0  0  0  0  0  0
    6.1261    3.7948   -0.3331 H   0  0  0  0  0  0  0  0  0  0  0  0
   -0.0473    2.6607   -1.1001 H   0  0  0  0  0  0  0  0  0  0  0  0
    0.5227   -1.4809    0.0798 H   0  0  0  0  0  0  0  0  0  0  0  0
   -2.4531    2.3633   -0.8623 H   0  0  0  0  0  0  0  0  0  0  0  0
   -1.8089   -1.7457    0.3487 H   0  0  0  0  0  0  0  0  0  0  0  0
   -7.2691    2.1104    0.8915 H   0  0  0  0  0  0  0  0  0  0  0  0
   -6.7968   -2.7231   -0.3325 H   0  0  0  0  0  0  0  0  0  0  0  0
   -9.2666    0.6237    0.8142 H   0  0  0  0  0  0  0  0  0  0  0  0
   -9.0331   -1.7675    0.2086 H   0  0  0  0  0  0  0  0  0  0  0  0
  1 15  1  0  0  0  0
  1 45  1  0  0  0  0
  2 14  2  0  0  0  0
  3 15  2  0  0  0  0
  4 26  2  0  0  0  0
  5 27  2  0  0  0  0
  6 14  1  0  0  0  0
  6 18  1  0  0  0  0
  6 44  1  0  0  0  0
  7 21  1  0  0  0  0
  7 26  1  0  0  0  0
  7 27  1  0  0  0  0
  8  9  1  0  0  0  0
  8 10  1  0  0  0  0
  8 14  1  0  0  0  0
  8 32  1  0  0  0  0
  9 11  1  0  0  0  0
  9 15  1  0  0  0  0
  9 33  1  0  0  0  0
 10 12  1  0  0  0  0
 10 34  1  0  0  0  0
 10 35  1  0  0  0  0
 11 13  1  0  0  0  0
 11 36  1  0  0  0  0
 11 37  1  0  0  0  0
 12 13  2  0  0  0  0
 12 16  1  0  0  0  0
 13 17  1  0  0  0  0
 16 38  1  0  0  0  0
 16 39  1  0  0  0  0
 16 40  1  0  0  0  0
 17 41  1  0  0  0  0
 17 42  1  0  0  0  0
 17 43  1  0  0  0  0
 18 19  2  0  0  0  0
 18 20  1  0  0  0  0
 19 22  1  0  0  0  0
 19 46  1  0  0  0  0
 20 23  2  0  0  0  0
 20 47  1  0  0  0  0
 21 22  2  0  0  0  0
 21 23  1  0  0  0  0
 22 48  1  0  0  0  0
 23 49  1  0  0  0  0
 24 25  1  0  0  0  0
 24 26  1  0  0  0  0
 24 28  2  0  0  0  0
 25 27  1  0  0  0  0
 25 29  2  0  0  0  0
 28 30  1  0  0  0  0
 28 50  1  0  0  0  0
 29 31  1  0  0  0  0
 29 51  1  0  0  0  0
 30 31  2  0  0  0  0
 30 52  1  0  0  0  0
 31 53  1  0  0  0  0
M  END
> <PUBCHEM_COMPOUND_CID>
3137781

> <PUBCHEM_CONFORMER_RMSD>
0.8

> <PUBCHEM_CONFORMER_DIVERSEORDER>
1
46
53
32
42
30
49
8
43
17
52
48
33
44
11
7
55
34
31
27
12
9
50
47
19
35
28
26
5
45
51
39
54
13
16
20
2
38
14
40
41
29
15
25
3
37
4
24
18
6
21
10
36
22
23

> <PUBCHEM_MMFF94_PARTIAL_CHARGES>
41
1 -0.65
10 0.14
11 0.14
12 -0.28
13 -0.28
14 0.57
15 0.66
16 0.14
17 0.14
18 0.12
19 -0.15
2 -0.57
20 -0.15
21 0.12
22 -0.15
23 -0.15
24 0.09
25 0.09
26 0.54
27 0.54
28 -0.15
29 -0.15
3 -0.57
30 -0.15
31 -0.15
4 -0.57
44 0.37
45 0.5
46 0.15
47 0.15
48 0.15
49 0.15
5 -0.57
50 0.15
51 0.15
52 0.15
53 0.15
6 -0.55
7 -0.24
8 0.06
9 0.06

> <PUBCHEM_EFFECTIVE_ROTOR_COUNT>
6

> <PUBCHEM_PHARMACOPHORE_FEATURES>
11
1 1 acceptor
1 2 acceptor
1 3 acceptor
1 4 acceptor
1 5 acceptor
1 6 donor
3 1 3 15 anion
5 7 24 25 26 27 rings
6 18 19 20 21 22 23 rings
6 24 25 28 29 30 31 rings
6 8 9 10 11 12 13 rings

> <PUBCHEM_HEAVY_ATOM_COUNT>
31

> <PUBCHEM_ATOM_DEF_STEREO_COUNT>
0

> <PUBCHEM_ATOM_UDEF_STEREO_COUNT>
2

> <PUBCHEM_BOND_DEF_STEREO_COUNT>
0

> <PUBCHEM_BOND_UDEF_STEREO_COUNT>
0

> <PUBCHEM_ISOTOPIC_ATOM_COUNT>
0

> <PUBCHEM_COMPONENT_COUNT>
1

> <PUBCHEM_CACTVS_TAUTO_COUNT>
2

> <PUBCHEM_CONFORMER_ID>
002FE0F500000001

> <PUBCHEM_MMFF94_ENERGY>
91.0416

> <PUBCHEM_FEATURE_SELFOVERLAP>
55.97

> <PUBCHEM_SHAPE_FINGERPRINT>
10 15 18131350830072214765
10299344 5 18261116261834723207
10939801 23 18340769359332581444
11135926 11 18335414626965006271
11315181 36 18060424630180260393
11524674 6 17060619993270149231
11719270 70 17775288248413553126
12166972 35 17385447600761157620
12236239 1 18409450293443348173
125118 31 17918279722995122513
12516196 113 18273217504132404141
12664476 115 12247684864215940658
13533116 47 17895189983607576842
13782708 43 18260266304907547254
13835254 42 17822005368735190052
14251764 18 18410856590263827349
14347424 109 18412823595185910896
14394314 77 18409170975020956881
14849402 71 18269558406708368609
14933364 13 18201442488508464837
15183329 4 11746932062235669245
15419008 91 18041544915303080557
15461852 350 17275379925023381005
15716309 27 18272933826048155631
1577012 14 18201998867087849887
16994733 274 12535355571806700807
21130935 74 18341897393975755243
21150785 3 13334744522158699374
21267235 1 18335145258445632903
21792934 111 18130781218419172633
23081809 10 17968104100733728933
23522609 53 17825982284611852452
23559900 14 18272083959526750841
23569943 247 17897159117953374698
3004659 81 18334863797002657670
3383291 50 18187653552710307291
34797466 226 17632587071177655764
3663271 9 18412263934639732145
397830 11 16558175137832526839
4073 2 18116155656733377802
4197921 191 18342462555647430256
4340502 62 16630527315081786494
5104073 3 18410854356838843736
6176135 31 18343014480884383566
68570916 9 18129658724732261855
9831232 110 18198912409670019534
9962374 69 18409162208876570174

> <PUBCHEM_SHAPE_MULTIPOLES>
598.66
25.99
2.49
1.11
16.67
0.25
-0.3
-5.67
-5.65
-3.35
0.03
-1.89
-0.37
-0.72

> <PUBCHEM_SHAPE_SELFOVERLAP>
1318.954

> <PUBCHEM_SHAPE_VOLUME>
318.2

> <PUBCHEM_COORDINATE_TYPE>
2
5
10

$$$$
