9572788
  -OEChem-02101610523D

 26 25  0     1  0  0  0  0  0999 V2000
   -1.4446   -1.1444   -1.9500 Cl  0  0  0  0  0  0  0  0  0  0  0  0
   -3.7546   -0.1440   -0.4872 Cl  0  0  0  0  0  0  0  0  0  0  0  0
   -2.3169   -2.4614    0.5007 Cl  0  0  0  0  0  0  0  0  0  0  0  0
    1.2704    1.1931    0.9223 S   0  0  0  0  0  0  0  0  0  0  0  0
   -1.6991    0.1210    1.8630 O   0  0  0  0  0  0  0  0  0  0  0  0
    3.2124   -0.6103    0.0847 N   0  0  0  0  0  0  0  0  0  0  0  0
   -1.0895    1.3507   -0.1734 N   0  0  0  0  0  0  0  0  0  0  0  0
    0.4207    3.1883   -0.5805 N   0  0  0  0  0  0  0  0  0  0  0  0
    2.1007    0.2284   -0.3881 C   0  0  0  0  0  0  0  0  0  0  0  0
   -1.2057    0.0585    0.5201 C   0  0  2  0  0  0  0  0  0  0  0  0
    3.8233   -1.3208   -1.0407 C   0  0  0  0  0  0  0  0  0  0  0  0
    2.7779   -1.5740    1.0991 C   0  0  0  0  0  0  0  0  0  0  0  0
   -2.1206   -0.8705   -0.3116 C   0  0  0  0  0  0  0  0  0  0  0  0
    0.0256    1.9854   -0.0585 C   0  0  0  0  0  0  0  0  0  0  0  0
    2.4909    0.9577   -1.1073 H   0  0  0  0  0  0  0  0  0  0  0  0
    1.3607   -0.3813   -0.9165 H   0  0  0  0  0  0  0  0  0  0  0  0
   -0.2951   -0.5392    0.5730 H   0  0  0  0  0  0  0  0  0  0  0  0
    3.1206   -2.0059   -1.5290 H   0  0  0  0  0  0  0  0  0  0  0  0
    4.6931   -1.8978   -0.7070 H   0  0  0  0  0  0  0  0  0  0  0  0
    4.1899   -0.6108   -1.7905 H   0  0  0  0  0  0  0  0  0  0  0  0
    2.4685   -1.0825    2.0266 H   0  0  0  0  0  0  0  0  0  0  0  0
    3.6086   -2.2320    1.3810 H   0  0  0  0  0  0  0  0  0  0  0  0
    1.9544   -2.2043    0.7431 H   0  0  0  0  0  0  0  0  0  0  0  0
   -2.5134    0.6517    1.8354 H   0  0  0  0  0  0  0  0  0  0  0  0
    1.3467    3.5612   -0.4016 H   0  0  0  0  0  0  0  0  0  0  0  0
   -0.2007    3.7390   -1.1629 H   0  0  0  0  0  0  0  0  0  0  0  0
  1 13  1  0  0  0  0
  2 13  1  0  0  0  0
  3 13  1  0  0  0  0
  4  9  1  0  0  0  0
  4 14  1  0  0  0  0
  5 10  1  0  0  0  0
  5 24  1  0  0  0  0
  6  9  1  0  0  0  0
  6 11  1  0  0  0  0
  6 12  1  0  0  0  0
  7 10  1  0  0  0  0
  7 14  2  0  0  0  0
  8 14  1  0  0  0  0
  8 25  1  0  0  0  0
  8 26  1  0  0  0  0
  9 15  1  0  0  0  0
  9 16  1  0  0  0  0
 10 13  1  0  0  0  0
 10 17  1  0  0  0  0
 11 18  1  0  0  0  0
 11 19  1  0  0  0  0
 11 20  1  0  0  0  0
 12 21  1  0  0  0  0
 12 22  1  0  0  0  0
 12 23  1  0  0  0  0
M  END
> <PUBCHEM_COMPOUND_CID>
9572788

> <PUBCHEM_CONFORMER_RMSD>
0.6

> <PUBCHEM_CONFORMER_DIVERSEORDER>
9
28
35
17
21
18
14
36
10
29
20
31
33
11
16
5
27
15
34
22
32
2
19
26
4
13
23
7
3
12
24
30
6
1
8
25

> <PUBCHEM_MMFF94_PARTIAL_CHARGES>
17
1 -0.29
10 0.53
11 0.27
12 0.27
13 0.87
14 0.64
2 -0.29
24 0.4
25 0.4
26 0.4
3 -0.29
4 -0.37
5 -0.68
6 -0.81
7 -0.7
8 -0.85
9 0.5

> <PUBCHEM_EFFECTIVE_ROTOR_COUNT>
5

> <PUBCHEM_PHARMACOPHORE_FEATURES>
5
1 5 acceptor
1 5 donor
1 6 cation
1 8 donor
3 7 8 14 cation

> <PUBCHEM_HEAVY_ATOM_COUNT>
14

> <PUBCHEM_ATOM_DEF_STEREO_COUNT>
0

> <PUBCHEM_ATOM_UDEF_STEREO_COUNT>
1

> <PUBCHEM_BOND_DEF_STEREO_COUNT>
1

> <PUBCHEM_BOND_UDEF_STEREO_COUNT>
0

> <PUBCHEM_ISOTOPIC_ATOM_COUNT>
0

> <PUBCHEM_COMPONENT_COUNT>
1

> <PUBCHEM_CACTVS_TAUTO_COUNT>
2

> <PUBCHEM_CONFORMER_ID>
009211B400000009

> <PUBCHEM_MMFF94_ENERGY>
43.5069

> <PUBCHEM_FEATURE_SELFOVERLAP>
25.371

> <PUBCHEM_SHAPE_FINGERPRINT>
11127187 94 18187364311551022615
12553582 1 18336270059110003042
19766037 51 18336835272421531414
20361792 2 18411415124637343116
20645476 183 17609510323723340924
20645477 70 17976532038245461631
20711985 344 18265044735091901912
20871998 184 18200029508803334404
20871999 31 18334857160677058612
21028194 46 8286204963362415626
21069387 34 18059001900023700687
21524375 3 17106778332832925552
23419403 2 15401812140081117429
23532345 88 18053092106380856823
23552423 10 18122058977538642249
23557571 272 18270389508955124056
23598291 2 18269857400497307728
23728640 28 17759787157633977546
81228 2 18268426841517414864

> <PUBCHEM_SHAPE_MULTIPOLES>
276.76
5.75
2.69
1.44
1.91
1.23
-0.07
-3.71
-0.66
0.38
-0.2
-0.2
-0.42
0.08

> <PUBCHEM_SHAPE_SELFOVERLAP>
484.749

> <PUBCHEM_SHAPE_VOLUME>
184.1

> <PUBCHEM_COORDINATE_TYPE>
2
5
10

$$$$
