5352100
  -OEChem-02101610533D

 50 51  0     1  0  0  0  0  0999 V2000
   -3.6631    1.3106    0.8390 O   0  0  0  0  0  0  0  0  0  0  0  0
   -5.5989    1.2489   -0.4068 O   0  0  0  0  0  0  0  0  0  0  0  0
    5.3492    1.2567   -0.5914 O   0  0  0  0  0  0  0  0  0  0  0  0
    4.2965    0.8534    1.3985 O   0  0  0  0  0  0  0  0  0  0  0  0
   -2.8279   -0.8512    0.4343 C   0  0  2  0  0  0  0  0  0  0  0  0
   -2.4192    0.5680    0.8598 C   0  0  1  0  0  0  0  0  0  0  0  0
   -1.7035   -1.7426   -0.1060 C   0  0  0  0  0  0  0  0  0  0  0  0
   -3.9603   -0.5288   -0.4853 C   0  0  0  0  0  0  0  0  0  0  0  0
   -0.7246   -2.1680    0.9986 C   0  0  0  0  0  0  0  0  0  0  0  0
   -1.4459    1.2960   -0.0407 C   0  0  0  0  0  0  0  0  0  0  0  0
   -4.5393    0.7630   -0.0558 C   0  0  0  0  0  0  0  0  0  0  0  0
    0.5981   -2.6523    0.4392 C   0  0  0  0  0  0  0  0  0  0  0  0
   -0.3229    1.9637    0.2944 C   0  0  0  0  0  0  0  0  0  0  0  0
    0.4671    2.6905   -0.7848 C   0  0  0  0  0  0  0  0  0  0  0  0
   -4.4302   -1.1805   -1.5515 C   0  0  0  0  0  0  0  0  0  0  0  0
    1.7153   -1.9497    0.7039 C   0  0  0  0  0  0  0  0  0  0  0  0
    1.9746    2.3887   -0.8491 C   0  0  0  0  0  0  0  0  0  0  0  0
    3.1110   -2.1845    0.1996 C   0  0  0  0  0  0  0  0  0  0  0  0
    0.5421   -3.8954   -0.4031 C   0  0  0  0  0  0  0  0  0  0  0  0
    0.1884    2.1276    1.6985 C   0  0  0  0  0  0  0  0  0  0  0  0
    3.4566   -1.2625   -0.9807 C   0  0  0  0  0  0  0  0  0  0  0  0
    2.2844    0.9450   -1.1350 C   0  0  0  0  0  0  0  0  0  0  0  0
    3.3038    0.2056   -0.6620 C   0  0  0  0  0  0  0  0  0  0  0  0
    4.3488    0.7977    0.1862 C   0  0  0  0  0  0  0  0  0  0  0  0
   -3.2772   -1.3529    1.3044 H   0  0  0  0  0  0  0  0  0  0  0  0
   -2.0765    0.5430    1.8972 H   0  0  0  0  0  0  0  0  0  0  0  0
   -1.1732   -1.2383   -0.9233 H   0  0  0  0  0  0  0  0  0  0  0  0
   -2.1361   -2.6523   -0.5417 H   0  0  0  0  0  0  0  0  0  0  0  0
   -1.1755   -2.9658    1.6023 H   0  0  0  0  0  0  0  0  0  0  0  0
   -0.5565   -1.3326    1.6886 H   0  0  0  0  0  0  0  0  0  0  0  0
   -1.7243    1.2904   -1.0948 H   0  0  0  0  0  0  0  0  0  0  0  0
    0.0332    2.4967   -1.7750 H   0  0  0  0  0  0  0  0  0  0  0  0
    0.3455    3.7688   -0.6158 H   0  0  0  0  0  0  0  0  0  0  0  0
   -3.9964   -2.1202   -1.8738 H   0  0  0  0  0  0  0  0  0  0  0  0
   -5.2624   -0.7969   -2.1323 H   0  0  0  0  0  0  0  0  0  0  0  0
    1.6207   -1.0686    1.3384 H   0  0  0  0  0  0  0  0  0  0  0  0
    2.4562    2.7202    0.0775 H   0  0  0  0  0  0  0  0  0  0  0  0
    2.4028    2.9911   -1.6599 H   0  0  0  0  0  0  0  0  0  0  0  0
    3.8098   -2.0139    1.0281 H   0  0  0  0  0  0  0  0  0  0  0  0
    3.2645   -3.2248   -0.1021 H   0  0  0  0  0  0  0  0  0  0  0  0
    0.0685   -4.7074    0.1587 H   0  0  0  0  0  0  0  0  0  0  0  0
    1.5253   -4.2520   -0.7169 H   0  0  0  0  0  0  0  0  0  0  0  0
   -0.0419   -3.7177   -1.3116 H   0  0  0  0  0  0  0  0  0  0  0  0
    2.8292   -1.5317   -1.8408 H   0  0  0  0  0  0  0  0  0  0  0  0
    4.4900   -1.4572   -1.2946 H   0  0  0  0  0  0  0  0  0  0  0  0
    0.4135    3.1812    1.8967 H   0  0  0  0  0  0  0  0  0  0  0  0
    1.1047    1.5464    1.8411 H   0  0  0  0  0  0  0  0  0  0  0  0
   -0.5263    1.8128    2.4614 H   0  0  0  0  0  0  0  0  0  0  0  0
    1.5740    0.4494   -1.7964 H   0  0  0  0  0  0  0  0  0  0  0  0
    6.0703    1.6620   -0.0641 H   0  0  0  0  0  0  0  0  0  0  0  0
  1  6  1  0  0  0  0
  1 11  1  0  0  0  0
  2 11  2  0  0  0  0
  3 24  1  0  0  0  0
  3 50  1  0  0  0  0
  4 24  2  0  0  0  0
  5  6  1  0  0  0  0
  5  7  1  0  0  0  0
  5  8  1  0  0  0  0
  5 25  1  0  0  0  0
  6 10  1  0  0  0  0
  6 26  1  0  0  0  0
  7  9  1  0  0  0  0
  7 27  1  0  0  0  0
  7 28  1  0  0  0  0
  8 11  1  0  0  0  0
  8 15  2  0  0  0  0
  9 12  1  0  0  0  0
  9 29  1  0  0  0  0
  9 30  1  0  0  0  0
 10 13  2  0  0  0  0
 10 31  1  0  0  0  0
 12 16  2  0  0  0  0
 12 19  1  0  0  0  0
 13 14  1  0  0  0  0
 13 20  1  0  0  0  0
 14 17  1  0  0  0  0
 14 32  1  0  0  0  0
 14 33  1  0  0  0  0
 15 34  1  0  0  0  0
 15 35  1  0  0  0  0
 16 18  1  0  0  0  0
 16 36  1  0  0  0  0
 17 22  1  0  0  0  0
 17 37  1  0  0  0  0
 17 38  1  0  0  0  0
 18 21  1  0  0  0  0
 18 39  1  0  0  0  0
 18 40  1  0  0  0  0
 19 41  1  0  0  0  0
 19 42  1  0  0  0  0
 19 43  1  0  0  0  0
 20 46  1  0  0  0  0
 20 47  1  0  0  0  0
 20 48  1  0  0  0  0
 21 23  1  0  0  0  0
 21 44  1  0  0  0  0
 21 45  1  0  0  0  0
 22 23  2  0  0  0  0
 22 49  1  0  0  0  0
 23 24  1  0  0  0  0
M  END
> <PUBCHEM_COMPOUND_CID>
5352100

> <PUBCHEM_CONFORMER_RMSD>
0.6

> <PUBCHEM_CONFORMER_DIVERSEORDER>
1
15
16
7
17
2
12
4
11
8
22
25
6
27
23
10
13
18
5
24
9
20
14
26
21
3
19

> <PUBCHEM_MMFF94_PARTIAL_CHARGES>
29
1 -0.43
10 -0.29
11 0.71
12 -0.28
13 -0.28
14 0.14
15 -0.3
16 -0.29
17 0.14
18 0.14
19 0.14
2 -0.57
20 0.14
21 0.14
22 -0.29
23 -0.12
24 0.71
3 -0.65
31 0.15
34 0.15
35 0.15
36 0.15
4 -0.57
49 0.15
5 0.14
50 0.5
6 0.42
8 -0.12
9 0.14

> <PUBCHEM_EFFECTIVE_ROTOR_COUNT>
2.4

> <PUBCHEM_PHARMACOPHORE_FEATURES>
5
1 2 acceptor
1 3 acceptor
1 4 acceptor
3 3 4 24 anion
5 1 5 6 8 11 rings

> <PUBCHEM_HEAVY_ATOM_COUNT>
24

> <PUBCHEM_ATOM_DEF_STEREO_COUNT>
2

> <PUBCHEM_ATOM_UDEF_STEREO_COUNT>
0

> <PUBCHEM_BOND_DEF_STEREO_COUNT>
3

> <PUBCHEM_BOND_UDEF_STEREO_COUNT>
0

> <PUBCHEM_ISOTOPIC_ATOM_COUNT>
0

> <PUBCHEM_COMPONENT_COUNT>
1

> <PUBCHEM_CACTVS_TAUTO_COUNT>
1

> <PUBCHEM_CONFORMER_ID>
0051AAA400000001

> <PUBCHEM_MMFF94_ENERGY>
44.1482

> <PUBCHEM_FEATURE_SELFOVERLAP>
25.426

> <PUBCHEM_SHAPE_FINGERPRINT>
10366900 7 17775014509342783720
10498660 4 18410299098792170938
11112241 14 17344891134875743720
11370993 70 18335421308941965052
11513181 2 18201726119780740454
11646440 116 18271254931220548730
12553582 1 18263102001172452468
12596599 1 17845106098679307063
12788726 201 18059024873266404881
12838862 33 18335968831652739308
12838863 1 18265031665775835178
13544592 271 18336273400473532411
14787075 74 18130786823742091696
14790565 3 17908708324521396953
14931854 50 18410858784475177695
15196674 1 18409452474706778115
17093844 170 18409168792723259440
17492 54 18261109707482462350
19591789 44 17833559272900220691
20511986 3 18130212796925472413
20715895 44 18188765046594451805
21298829 104 18410292467869425429
21673915 165 18411983550832556196
22113638 7 18264487458942876284
23559900 14 18342465854830828572
3052486 1 18192139619895299634
350125 39 18337110039287027586
3680242 22 18260265209579961490
463206 1 18411419518599876927
474 4 18334297548050525323
484989 97 17902794394693515983
6287921 2 18056200167923166306

> <PUBCHEM_SHAPE_MULTIPOLES>
470.43
9.59
3.75
1.25
2.78
1.98
0.09
-2.43
-1.88
-1.41
0.02
-0.05
-0.23
-0.58

> <PUBCHEM_SHAPE_SELFOVERLAP>
963.489

> <PUBCHEM_SHAPE_VOLUME>
270.5

> <PUBCHEM_COORDINATE_TYPE>
2
5
10

$$$$
