259210
  -OEChem-02101610523D

 67 71  0     1  0  0  0  0  0999 V2000
   10.1727   -0.4316   -1.9537 Br  0  0  0  0  0  0  0  0  0  0  0  0
    4.6324   -0.9241    1.2641 S   0  0  0  0  0  0  0  0  0  0  0  0
    2.1468    2.0657   -0.6288 O   0  0  0  0  0  0  0  0  0  0  0  0
    3.6604    0.2010    0.5757 O   0  0  0  0  0  0  0  0  0  0  0  0
   -8.7618   -1.9694    0.8209 O   0  0  0  0  0  0  0  0  0  0  0  0
    4.1126   -2.2436    0.9626 O   0  0  0  0  0  0  0  0  0  0  0  0
    4.8959   -0.5073    2.6284 O   0  0  0  0  0  0  0  0  0  0  0  0
   -2.1093    1.7528    0.2961 C   0  0  2  0  0  0  0  0  0  0  0  0
   -0.8604    0.9216   -0.0675 C   0  0  1  0  0  0  0  0  0  0  0  0
   -3.3851    1.2409   -0.3807 C   0  0  1  0  0  0  0  0  0  0  0  0
   -3.6325   -0.2350    0.0632 C   0  0  1  0  0  0  0  0  0  0  0  0
   -4.9521   -0.8453   -0.5491 C   0  0  2  0  0  0  0  0  0  0  0  0
    0.2080    1.7222    0.7095 C   0  0  2  0  0  0  0  0  0  0  0  0
   -1.0873   -0.5090    0.4393 C   0  0  0  0  0  0  0  0  0  0  0  0
   -2.3733   -1.1210   -0.1447 C   0  0  0  0  0  0  0  0  0  0  0  0
   -1.6626    3.1893    0.0462 C   0  0  0  0  0  0  0  0  0  0  0  0
   -0.1888    3.1973    0.4910 C   0  0  0  0  0  0  0  0  0  0  0  0
   -4.5973    2.1089   -0.0202 C   0  0  0  0  0  0  0  0  0  0  0  0
   -0.5425    0.8963   -1.5854 C   0  0  0  0  0  0  0  0  0  0  0  0
   -6.1179    0.1266   -0.3251 C   0  0  0  0  0  0  0  0  0  0  0  0
   -5.8682    1.5761   -0.6692 C   0  0  0  0  0  0  0  0  0  0  0  0
   -5.2424   -2.1976    0.1652 C   0  0  0  0  0  0  0  0  0  0  0  0
   -4.8211   -1.0995   -2.0678 C   0  0  0  0  0  0  0  0  0  0  0  0
    1.6177    1.4423    0.2902 C   0  0  0  0  0  0  0  0  0  0  0  0
   -6.6582   -2.7092   -0.0495 C   0  0  0  0  0  0  0  0  0  0  0  0
   -7.3272   -0.2428    0.1290 C   0  0  0  0  0  0  0  0  0  0  0  0
   -7.6611   -1.6660    0.3649 C   0  0  0  0  0  0  0  0  0  0  0  0
    2.3426    0.3574    1.0579 C   0  0  0  0  0  0  0  0  0  0  0  0
    6.1543   -0.7886    0.3803 C   0  0  0  0  0  0  0  0  0  0  0  0
    7.1280    0.0856    0.8354 C   0  0  0  0  0  0  0  0  0  0  0  0
    6.3507   -1.5587   -0.7545 C   0  0  0  0  0  0  0  0  0  0  0  0
    8.3306    0.1925    0.1370 C   0  0  0  0  0  0  0  0  0  0  0  0
    7.5533   -1.4518   -1.4531 C   0  0  0  0  0  0  0  0  0  0  0  0
    8.5432   -0.5761   -1.0074 C   0  0  0  0  0  0  0  0  0  0  0  0
   -2.2755    1.6714    1.3837 H   0  0  0  0  0  0  0  0  0  0  0  0
   -3.2593    1.2852   -1.4679 H   0  0  0  0  0  0  0  0  0  0  0  0
   -3.7862   -0.1971    1.1543 H   0  0  0  0  0  0  0  0  0  0  0  0
    0.1295    1.5174    1.7862 H   0  0  0  0  0  0  0  0  0  0  0  0
   -1.1605   -0.5162    1.5343 H   0  0  0  0  0  0  0  0  0  0  0  0
   -0.2412   -1.1538    0.1784 H   0  0  0  0  0  0  0  0  0  0  0  0
   -2.5202   -2.0966    0.3317 H   0  0  0  0  0  0  0  0  0  0  0  0
   -2.2208   -1.3198   -1.2101 H   0  0  0  0  0  0  0  0  0  0  0  0
   -2.2534    3.9111    0.6192 H   0  0  0  0  0  0  0  0  0  0  0  0
   -1.7466    3.4577   -1.0127 H   0  0  0  0  0  0  0  0  0  0  0  0
    0.4200    3.7204   -0.2536 H   0  0  0  0  0  0  0  0  0  0  0  0
   -0.0794    3.7516    1.4308 H   0  0  0  0  0  0  0  0  0  0  0  0
   -4.4374    3.1400   -0.3562 H   0  0  0  0  0  0  0  0  0  0  0  0
   -4.7260    2.1456    1.0693 H   0  0  0  0  0  0  0  0  0  0  0  0
   -0.3136    1.8901   -1.9829 H   0  0  0  0  0  0  0  0  0  0  0  0
    0.3236    0.2561   -1.7895 H   0  0  0  0  0  0  0  0  0  0  0  0
   -1.3673    0.5007   -2.1838 H   0  0  0  0  0  0  0  0  0  0  0  0
   -5.7925    1.6746   -1.7592 H   0  0  0  0  0  0  0  0  0  0  0  0
   -6.7100    2.2091   -0.3624 H   0  0  0  0  0  0  0  0  0  0  0  0
   -4.5402   -2.9710   -0.1682 H   0  0  0  0  0  0  0  0  0  0  0  0
   -5.0852   -2.0808    1.2467 H   0  0  0  0  0  0  0  0  0  0  0  0
   -5.7801   -1.3924   -2.5110 H   0  0  0  0  0  0  0  0  0  0  0  0
   -4.1124   -1.9064   -2.2821 H   0  0  0  0  0  0  0  0  0  0  0  0
   -4.4807   -0.2116   -2.6095 H   0  0  0  0  0  0  0  0  0  0  0  0
   -6.8132   -3.6036    0.5640 H   0  0  0  0  0  0  0  0  0  0  0  0
   -6.8405   -2.9776   -1.0948 H   0  0  0  0  0  0  0  0  0  0  0  0
   -8.1241    0.4762    0.2870 H   0  0  0  0  0  0  0  0  0  0  0  0
    2.3746    0.6432    2.1140 H   0  0  0  0  0  0  0  0  0  0  0  0
    1.8041   -0.5856    0.9429 H   0  0  0  0  0  0  0  0  0  0  0  0
    6.9791    0.6986    1.7191 H   0  0  0  0  0  0  0  0  0  0  0  0
    5.5902   -2.2398   -1.1239 H   0  0  0  0  0  0  0  0  0  0  0  0
    9.0911    0.8809    0.4966 H   0  0  0  0  0  0  0  0  0  0  0  0
    7.7024   -2.0564   -2.3441 H   0  0  0  0  0  0  0  0  0  0  0  0
  1 34  1  0  0  0  0
  2  4  1  0  0  0  0
  2  6  2  0  0  0  0
  2  7  2  0  0  0  0
  2 29  1  0  0  0  0
  3 24  2  0  0  0  0
  4 28  1  0  0  0  0
  5 27  2  0  0  0  0
  8  9  1  0  0  0  0
  8 10  1  0  0  0  0
  8 16  1  0  0  0  0
  8 35  1  0  0  0  0
  9 13  1  0  0  0  0
  9 14  1  0  0  0  0
  9 19  1  0  0  0  0
 10 11  1  0  0  0  0
 10 18  1  0  0  0  0
 10 36  1  0  0  0  0
 11 12  1  0  0  0  0
 11 15  1  0  0  0  0
 11 37  1  0  0  0  0
 12 20  1  0  0  0  0
 12 22  1  0  0  0  0
 12 23  1  0  0  0  0
 13 17  1  0  0  0  0
 13 24  1  0  0  0  0
 13 38  1  0  0  0  0
 14 15  1  0  0  0  0
 14 39  1  0  0  0  0
 14 40  1  0  0  0  0
 15 41  1  0  0  0  0
 15 42  1  0  0  0  0
 16 17  1  0  0  0  0
 16 43  1  0  0  0  0
 16 44  1  0  0  0  0
 17 45  1  0  0  0  0
 17 46  1  0  0  0  0
 18 21  1  0  0  0  0
 18 47  1  0  0  0  0
 18 48  1  0  0  0  0
 19 49  1  0  0  0  0
 19 50  1  0  0  0  0
 19 51  1  0  0  0  0
 20 21  1  0  0  0  0
 20 26  2  0  0  0  0
 21 52  1  0  0  0  0
 21 53  1  0  0  0  0
 22 25  1  0  0  0  0
 22 54  1  0  0  0  0
 22 55  1  0  0  0  0
 23 56  1  0  0  0  0
 23 57  1  0  0  0  0
 23 58  1  0  0  0  0
 24 28  1  0  0  0  0
 25 27  1  0  0  0  0
 25 59  1  0  0  0  0
 25 60  1  0  0  0  0
 26 27  1  0  0  0  0
 26 61  1  0  0  0  0
 28 62  1  0  0  0  0
 28 63  1  0  0  0  0
 29 30  2  0  0  0  0
 29 31  1  0  0  0  0
 30 32  1  0  0  0  0
 30 64  1  0  0  0  0
 31 33  2  0  0  0  0
 31 65  1  0  0  0  0
 32 34  2  0  0  0  0
 32 66  1  0  0  0  0
 33 34  1  0  0  0  0
 33 67  1  0  0  0  0
M  END
> <PUBCHEM_COMPOUND_CID>
259210

> <PUBCHEM_CONFORMER_RMSD>
1

> <PUBCHEM_CONFORMER_DIVERSEORDER>
1
44
22
37
27
26
18
28
46
47
31
9
41
39
49
15
40
8
36
25
45
16
13
34
5
11
23
33
21
4
50
35
24
48
12
42
43
2
7
17
14
29
6
32
38
3
20
30
10
19

> <PUBCHEM_MMFF94_PARTIAL_CHARGES>
27
1 -0.11
12 0.14
13 0.06
2 1.49
20 -0.28
21 0.14
24 0.45
25 0.06
26 -0.14
27 0.49
28 0.34
29 -0.01
3 -0.57
30 -0.15
31 -0.15
32 -0.15
33 -0.15
34 0.11
4 -0.46
5 -0.57
6 -0.65
61 0.15
64 0.15
65 0.15
66 0.15
67 0.15
7 -0.65

> <PUBCHEM_EFFECTIVE_ROTOR_COUNT>
6.8

> <PUBCHEM_PHARMACOPHORE_FEATURES>
10
1 1 hydrophobe
1 3 acceptor
1 5 acceptor
1 6 acceptor
1 7 acceptor
5 8 9 13 16 17 rings
6 10 11 12 18 20 21 rings
6 12 20 22 25 26 27 rings
6 29 30 31 32 33 34 rings
6 8 9 10 11 14 15 rings

> <PUBCHEM_HEAVY_ATOM_COUNT>
34

> <PUBCHEM_ATOM_DEF_STEREO_COUNT>
6

> <PUBCHEM_ATOM_UDEF_STEREO_COUNT>
0

> <PUBCHEM_BOND_DEF_STEREO_COUNT>
0

> <PUBCHEM_BOND_UDEF_STEREO_COUNT>
0

> <PUBCHEM_ISOTOPIC_ATOM_COUNT>
0

> <PUBCHEM_COMPONENT_COUNT>
1

> <PUBCHEM_CACTVS_TAUTO_COUNT>
15

> <PUBCHEM_CONFORMER_ID>
0003F48A00000001

> <PUBCHEM_MMFF94_ENERGY>
83.9948

> <PUBCHEM_FEATURE_SELFOVERLAP>
50.861

> <PUBCHEM_SHAPE_FINGERPRINT>
10076449 9 18334861627600996553
10258705 36 17846227626995966774
10299344 5 18113336405555591202
10533779 1 16444492263957839692
11443803 9 9655578487329529301
11456790 92 11959724984830548942
11621639 307 11459517546010667543
117089 54 18191871330622032491
12144603 126 18041565736845451885
12166972 35 17822007644872053797
12645989 146 18339918346788066479
13383668 40 17202495402665258805
13673619 4 17846777399962505000
13690498 29 18114454613803975397
13782708 43 17703781488890552326
13811026 1 18413101775268675053
14068700 675 18260828193946556924
14444916 359 16702304538323931190
15183329 4 17530684299318764972
15301273 46 17703790310378676048
15352257 5 17704070677744701518
15684393 108 17749104487136819058
1577012 14 17895188857745747090
15979999 66 17603302657093536876
16120349 21 18342461444141827065
16728433 281 16445288112217042677
16991971 28 18342176670140096684
16992752 21 18410863144416095924
18335252 98 18273496763507142898
18608769 82 18343298163357732990
195137 95 8862947160678349754
20105231 36 18060421309548574798
20737093 207 18044368337759495458
21150785 3 16660362580006991578
21223535 225 14635143465522103207
21267235 1 18410012156770186665
21403212 168 10303816471475314696
21585481 151 17988646332579659223
21591340 7 9439402402385628328
21647283 7 12679170656867869979
21859007 373 8430320139054796266
21927370 108 17632866312645116817
23522609 53 17532949203078495652
23559900 14 18340758300193273256
23569917 315 17986949860107669519
25269216 80 18410300190457273092
255183 451 18336262452754953621
2747138 104 18272365373893715776
3004659 81 18260263053812573888
335352 9 18337663141107520157
335507 130 18130781292414791748
3383291 50 18409162247114772235
397638 26 9367344821670296366
4107672 100 18040991783686783805
437815 12 17988638601574703416
4461854 278 17917998307979701630
54039377 194 18410578400889573471
54728670 133 15410348637354692585
636775 8 18413114961430327238
9896288 288 17987521408168196921
9995097 26 18272937133489400204
999808 66 17989204841219631796

> <PUBCHEM_SHAPE_MULTIPOLES>
680.15
29.57
2.84
1.46
40.89
1.11
-0.08
-19.18
-6.86
-4.12
0.12
2.53
-0.37
1

> <PUBCHEM_SHAPE_SELFOVERLAP>
1436.944

> <PUBCHEM_SHAPE_VOLUME>
387.7

> <PUBCHEM_COORDINATE_TYPE>
2
5
10

$$$$
