5459019
  -OEChem-02101610533D

 47 49  0     1  0  0  0  0  0999 V2000
   -1.7200    1.1488   -0.2697 O   0  0  0  0  0  0  0  0  0  0  0  0
   -0.2168   -1.2940   -0.0276 O   0  0  0  0  0  0  0  0  0  0  0  0
   -1.5316   -3.5639    0.7539 O   0  0  0  0  0  0  0  0  0  0  0  0
   -6.2601    0.4848    2.1282 O   0  0  0  0  0  0  0  0  0  0  0  0
   -7.8894    0.2531   -0.1112 O   0  0  0  0  0  0  0  0  0  0  0  0
    8.9578    0.5299    0.4134 O   0  0  0  0  0  0  0  0  0  0  0  0
   -2.2625   -0.1322   -0.6367 C   0  0  1  0  0  0  0  0  0  0  0  0
   -1.6311   -1.2355    0.2282 C   0  0  1  0  0  0  0  0  0  0  0  0
   -3.7652   -0.0287   -0.4930 C   0  0  0  0  0  0  0  0  0  0  0  0
   -2.1812   -2.6247   -0.0829 C   0  0  0  0  0  0  0  0  0  0  0  0
    0.3697   -0.0581   -0.0183 C   0  0  0  0  0  0  0  0  0  0  0  0
   -0.3598    1.1254   -0.1250 C   0  0  0  0  0  0  0  0  0  0  0  0
   -4.3322    0.1826    0.7636 C   0  0  0  0  0  0  0  0  0  0  0  0
   -4.5826   -0.1453   -1.6171 C   0  0  0  0  0  0  0  0  0  0  0  0
    1.7600   -0.0148    0.0911 C   0  0  0  0  0  0  0  0  0  0  0  0
    0.2949    2.3565   -0.0776 C   0  0  0  0  0  0  0  0  0  0  0  0
    2.4159    1.2159    0.1251 C   0  0  0  0  0  0  0  0  0  0  0  0
    1.6836    2.4005    0.0465 C   0  0  0  0  0  0  0  0  0  0  0  0
   -5.7177    0.2774    0.8961 C   0  0  0  0  0  0  0  0  0  0  0  0
   -5.9677   -0.0506   -1.4845 C   0  0  0  0  0  0  0  0  0  0  0  0
   -6.5353    0.1609   -0.2281 C   0  0  0  0  0  0  0  0  0  0  0  0
    3.8645    1.2643    0.2467 C   0  0  0  0  0  0  0  0  0  0  0  0
    4.7156    0.2531   -0.0444 C   0  0  0  0  0  0  0  0  0  0  0  0
    6.1526    0.3526    0.1036 C   0  0  0  0  0  0  0  0  0  0  0  0
    6.9815   -0.6585   -0.1893 C   0  0  0  0  0  0  0  0  0  0  0  0
    8.4533   -0.5042   -0.0182 C   0  0  0  0  0  0  0  0  0  0  0  0
    9.3036   -1.6956   -0.3728 C   0  0  0  0  0  0  0  0  0  0  0  0
   -2.0036   -0.2977   -1.6926 H   0  0  0  0  0  0  0  0  0  0  0  0
   -1.7465   -1.0285    1.3012 H   0  0  0  0  0  0  0  0  0  0  0  0
   -1.9683   -2.9078   -1.1188 H   0  0  0  0  0  0  0  0  0  0  0  0
   -3.2586   -2.6996    0.0881 H   0  0  0  0  0  0  0  0  0  0  0  0
   -3.7053    0.2829    1.6459 H   0  0  0  0  0  0  0  0  0  0  0  0
   -4.1549   -0.3106   -2.6022 H   0  0  0  0  0  0  0  0  0  0  0  0
    2.2935   -0.9573    0.1784 H   0  0  0  0  0  0  0  0  0  0  0  0
   -0.2675    3.2836   -0.1480 H   0  0  0  0  0  0  0  0  0  0  0  0
    2.1786    3.3684    0.0740 H   0  0  0  0  0  0  0  0  0  0  0  0
   -6.5931   -0.1432   -2.3684 H   0  0  0  0  0  0  0  0  0  0  0  0
   -1.7459   -3.3370    1.6748 H   0  0  0  0  0  0  0  0  0  0  0  0
    4.2747    2.2084    0.6014 H   0  0  0  0  0  0  0  0  0  0  0  0
   -7.2277    0.5242    2.0337 H   0  0  0  0  0  0  0  0  0  0  0  0
    4.3481   -0.6959   -0.4246 H   0  0  0  0  0  0  0  0  0  0  0  0
   -8.2910    0.1489   -0.9909 H   0  0  0  0  0  0  0  0  0  0  0  0
    6.5419    1.2991    0.4696 H   0  0  0  0  0  0  0  0  0  0  0  0
    6.6148   -1.6120   -0.5546 H   0  0  0  0  0  0  0  0  0  0  0  0
   10.2033   -1.3524   -0.8916 H   0  0  0  0  0  0  0  0  0  0  0  0
    9.5804   -2.2270    0.5410 H   0  0  0  0  0  0  0  0  0  0  0  0
    8.7716   -2.3774   -1.0419 H   0  0  0  0  0  0  0  0  0  0  0  0
  1  7  1  0  0  0  0
  1 12  1  0  0  0  0
  2  8  1  0  0  0  0
  2 11  1  0  0  0  0
  3 10  1  0  0  0  0
  3 38  1  0  0  0  0
  4 19  1  0  0  0  0
  4 40  1  0  0  0  0
  5 21  1  0  0  0  0
  5 42  1  0  0  0  0
  6 26  2  0  0  0  0
  7  8  1  0  0  0  0
  7  9  1  0  0  0  0
  7 28  1  0  0  0  0
  8 10  1  0  0  0  0
  8 29  1  0  0  0  0
  9 13  2  0  0  0  0
  9 14  1  0  0  0  0
 10 30  1  0  0  0  0
 10 31  1  0  0  0  0
 11 12  2  0  0  0  0
 11 15  1  0  0  0  0
 12 16  1  0  0  0  0
 13 19  1  0  0  0  0
 13 32  1  0  0  0  0
 14 20  2  0  0  0  0
 14 33  1  0  0  0  0
 15 17  2  0  0  0  0
 15 34  1  0  0  0  0
 16 18  2  0  0  0  0
 16 35  1  0  0  0  0
 17 18  1  0  0  0  0
 17 22  1  0  0  0  0
 18 36  1  0  0  0  0
 19 21  2  0  0  0  0
 20 21  1  0  0  0  0
 20 37  1  0  0  0  0
 22 23  2  0  0  0  0
 22 39  1  0  0  0  0
 23 24  1  0  0  0  0
 23 41  1  0  0  0  0
 24 25  2  0  0  0  0
 24 43  1  0  0  0  0
 25 26  1  0  0  0  0
 25 44  1  0  0  0  0
 26 27  1  0  0  0  0
 27 45  1  0  0  0  0
 27 46  1  0  0  0  0
 27 47  1  0  0  0  0
M  END
> <PUBCHEM_COMPOUND_CID>
5459019

> <PUBCHEM_CONFORMER_RMSD>
0.8

> <PUBCHEM_CONFORMER_DIVERSEORDER>
11
8
56
33
87
30
14
92
89
22
10
27
16
85
61
80
17
76
47
64
4
29
67
70
13
60
9
23
38
63
73
19
83
82
88
25
24
45
77
55
49
7
78
74
93
31
37
58
2
71
18
84
39
59
46
81
3
57
91
50
51
72
53
40
35
52
65
5
1
26
68
79
62
86
12
75
66
34
44
6
32
28
90
69
36
43
48
42
21
54
20
15
41

> <PUBCHEM_MMFF94_PARTIAL_CHARGES>
40
1 -0.36
10 0.28
11 0.08
12 0.08
13 -0.15
14 -0.15
15 -0.15
16 -0.15
17 0.03
18 -0.15
19 0.08
2 -0.36
20 -0.15
21 0.08
22 -0.18
23 -0.15
24 -0.15
25 -0.14
26 0.49
27 0.06
3 -0.68
32 0.15
33 0.15
34 0.15
35 0.15
36 0.15
37 0.15
38 0.4
39 0.15
4 -0.53
40 0.45
41 0.15
42 0.45
43 0.15
44 0.15
5 -0.53
6 -0.57
7 0.42
8 0.28
9 -0.14

> <PUBCHEM_EFFECTIVE_ROTOR_COUNT>
5.8

> <PUBCHEM_PHARMACOPHORE_FEATURES>
10
1 1 acceptor
1 2 acceptor
1 3 acceptor
1 3 donor
1 4 donor
1 5 donor
1 6 acceptor
6 1 2 7 8 11 12 rings
6 11 12 15 16 17 18 rings
6 9 13 14 19 20 21 rings

> <PUBCHEM_HEAVY_ATOM_COUNT>
27

> <PUBCHEM_ATOM_DEF_STEREO_COUNT>
0

> <PUBCHEM_ATOM_UDEF_STEREO_COUNT>
2

> <PUBCHEM_BOND_DEF_STEREO_COUNT>
2

> <PUBCHEM_BOND_UDEF_STEREO_COUNT>
0

> <PUBCHEM_ISOTOPIC_ATOM_COUNT>
0

> <PUBCHEM_COMPONENT_COUNT>
1

> <PUBCHEM_CACTVS_TAUTO_COUNT>
20

> <PUBCHEM_CONFORMER_ID>
00534C4B0000000B

> <PUBCHEM_MMFF94_ENERGY>
77.2228

> <PUBCHEM_FEATURE_SELFOVERLAP>
50.798

> <PUBCHEM_SHAPE_FINGERPRINT>
10076449 9 18187365424311809132
10369192 42 13984376678211144506
10391435 84 18336540621471230226
10906281 52 18200892758401129381
11135926 11 18336260172296085470
11211813 89 18334013900352677596
11315181 36 17703507782855448488
11408170 108 17203338763129810694
11524674 6 17418372502578433958
12082328 90 15357690877942984322
12236239 1 17846214497412063573
12592606 108 18411979187061491374
12643181 29 18335698369320335250
12741549 16 16845567596567812776
12758862 56 18335135423566617992
12760667 363 18343300362565435860
12838862 33 18336809954069063930
13885169 127 16917352511067650608
13914758 101 16630533916525433290
14216079 64 18343302531961712046
14251764 18 17989207053898188608
14251764 46 18410855455833200997
14856354 85 15430039872447663835
15183329 4 18409161108989902146
15849732 13 17022621983514950822
16087824 20 18336544903106283613
18006028 8 18273493477525183368
18603816 31 17560506387569611990
18643901 69 18411423870055940948
19301679 30 15553897569038019180
20105231 36 17821733827632193106
20721686 56 18337959991492455634
21033648 29 18115285879081419661
21150785 3 14273456972819786672
21267235 1 18408042901448861204
21792934 111 18342167878653616112
21792961 116 17822005372749723860
22224240 67 16702297958708216284
22311459 1 18410292506497055604
23559900 14 18267578186535269032
23569917 315 18339644559608234599
23569943 247 17915472588042138231
23576562 1 17604703525348653535
246663 6 18260551108911108592
249057 3 17894912953853328804
28498 318 18411416194553756812
3004659 81 18186514424282417500
335352 9 18410009961667274268
3383291 50 18410014346787257258
4017518 198 17203332226158041974
404807 14 15476527026333090847
4073 2 18263361563995691266
4098825 35 14707473751887776616
4339292 15 17023189387782312971
444769 64 18411982472748460995
5104073 3 18193267722693305456
5265222 85 16298963059754727512
5381727 24 18202846570217706103
5470011 282 17385731288495338286
559249 180 18340485663699899879
58260988 521 17603882108727468667
59521270 166 18187080603697753108
59755656 215 18408882911363648670
59755656 520 18410006672308297143
6138700 20 18411979161038220358
999808 66 17894640261425388232

> <PUBCHEM_SHAPE_MULTIPOLES>
520.43
24.51
2.16
1.03
41.16
1.1
-0.06
5.06
0.12
0.66
-0.29
-2.09
0.02
0.18

> <PUBCHEM_SHAPE_SELFOVERLAP>
1120.56

> <PUBCHEM_SHAPE_VOLUME>
285.2

> <PUBCHEM_COORDINATE_TYPE>
2
5
10

$$$$
