389769
  -OEChem-02101610533D

 42 46  0     0  0  0  0  0  0999 V2000
    1.3323    1.1320   -0.1775 S   0  0  0  0  0  0  0  0  0  0  0  0
    6.3667    0.6344   -0.0985 F   0  0  0  0  0  0  0  0  0  0  0  0
    6.2310    2.6356    0.7581 F   0  0  0  0  0  0  0  0  0  0  0  0
    6.2267    2.3725   -1.4049 F   0  0  0  0  0  0  0  0  0  0  0  0
   -1.8805   -1.5756   -1.3300 O   0  0  0  0  0  0  0  0  0  0  0  0
   -1.0451    2.2334    1.4474 O   0  0  0  0  0  0  0  0  0  0  0  0
   -4.4279   -0.6847   -1.4505 O   0  0  0  0  0  0  0  0  0  0  0  0
    3.5697    2.7417   -0.3300 O   0  0  0  0  0  0  0  0  0  0  0  0
    3.8438    0.4103   -0.0590 N   0  0  0  0  0  0  0  0  0  0  0  0
    3.6009   -3.3566    0.3050 N   0  0  0  0  0  0  0  0  0  0  0  0
   -1.3153    0.3847   -0.0392 C   0  0  0  0  0  0  0  0  0  0  0  0
    0.5974   -1.3114    0.1399 C   0  0  0  0  0  0  0  0  0  0  0  0
    0.0622   -0.0296    0.0113 C   0  0  0  0  0  0  0  0  0  0  0  0
   -0.2574   -2.4954    0.2330 C   0  0  0  0  0  0  0  0  0  0  0  0
   -2.2083   -0.3809   -0.6972 C   0  0  0  0  0  0  0  0  0  0  0  0
   -1.7697    1.6223    0.6694 C   0  0  0  0  0  0  0  0  0  0  0  0
   -3.1472    2.0934    0.4379 C   0  0  0  0  0  0  0  0  0  0  0  0
    2.0311   -1.3008    0.1572 C   0  0  0  0  0  0  0  0  0  0  0  0
   -1.4529   -2.5860   -0.4965 C   0  0  0  0  0  0  0  0  0  0  0  0
   -4.0448    1.3244   -0.2971 C   0  0  0  0  0  0  0  0  0  0  0  0
   -3.6278    0.0310   -0.8578 C   0  0  0  0  0  0  0  0  0  0  0  0
    2.5518   -0.0399    0.0018 C   0  0  0  0  0  0  0  0  0  0  0  0
    0.1212   -3.5822    1.0338 C   0  0  0  0  0  0  0  0  0  0  0  0
   -2.2368   -3.7423   -0.4531 C   0  0  0  0  0  0  0  0  0  0  0  0
   -3.5585    3.3203    0.9747 C   0  0  0  0  0  0  0  0  0  0  0  0
   -5.3545    1.7770   -0.4996 C   0  0  0  0  0  0  0  0  0  0  0  0
   -0.6725   -4.7310    1.0935 C   0  0  0  0  0  0  0  0  0  0  0  0
   -1.8472   -4.8122    0.3484 C   0  0  0  0  0  0  0  0  0  0  0  0
   -4.8631    3.7709    0.7704 C   0  0  0  0  0  0  0  0  0  0  0  0
   -5.7598    3.0002    0.0341 C   0  0  0  0  0  0  0  0  0  0  0  0
    2.9000   -2.4386    0.2390 C   0  0  0  0  0  0  0  0  0  0  0  0
    4.2672    1.7392   -0.2221 C   0  0  0  0  0  0  0  0  0  0  0  0
    5.7674    1.8438   -0.2421 C   0  0  0  0  0  0  0  0  0  0  0  0
    1.0067   -3.5526    1.6615 H   0  0  0  0  0  0  0  0  0  0  0  0
   -3.1516   -3.8109   -1.0355 H   0  0  0  0  0  0  0  0  0  0  0  0
   -2.8786    3.9404    1.5528 H   0  0  0  0  0  0  0  0  0  0  0  0
   -6.0721    1.1930   -1.0697 H   0  0  0  0  0  0  0  0  0  0  0  0
   -0.3741   -5.5620    1.7263 H   0  0  0  0  0  0  0  0  0  0  0  0
    4.5634   -0.3030    0.0292 H   0  0  0  0  0  0  0  0  0  0  0  0
   -2.4584   -5.7088    0.3934 H   0  0  0  0  0  0  0  0  0  0  0  0
   -5.1796    4.7230    1.1863 H   0  0  0  0  0  0  0  0  0  0  0  0
   -6.7754    3.3514   -0.1237 H   0  0  0  0  0  0  0  0  0  0  0  0
  1 13  1  0  0  0  0
  1 22  1  0  0  0  0
  2 33  1  0  0  0  0
  3 33  1  0  0  0  0
  4 33  1  0  0  0  0
  5 15  1  0  0  0  0
  5 19  1  0  0  0  0
  6 16  2  0  0  0  0
  7 21  2  0  0  0  0
  8 32  2  0  0  0  0
  9 22  1  0  0  0  0
  9 32  1  0  0  0  0
  9 39  1  0  0  0  0
 10 31  3  0  0  0  0
 11 13  1  0  0  0  0
 11 15  2  0  0  0  0
 11 16  1  0  0  0  0
 12 13  2  0  0  0  0
 12 14  1  0  0  0  0
 12 18  1  0  0  0  0
 14 19  1  0  0  0  0
 14 23  2  0  0  0  0
 15 21  1  0  0  0  0
 16 17  1  0  0  0  0
 17 20  1  0  0  0  0
 17 25  2  0  0  0  0
 18 22  2  0  0  0  0
 18 31  1  0  0  0  0
 19 24  2  0  0  0  0
 20 21  1  0  0  0  0
 20 26  2  0  0  0  0
 23 27  1  0  0  0  0
 23 34  1  0  0  0  0
 24 28  1  0  0  0  0
 24 35  1  0  0  0  0
 25 29  1  0  0  0  0
 25 36  1  0  0  0  0
 26 30  1  0  0  0  0
 26 37  1  0  0  0  0
 27 28  2  0  0  0  0
 27 38  1  0  0  0  0
 28 40  1  0  0  0  0
 29 30  2  0  0  0  0
 29 41  1  0  0  0  0
 30 42  1  0  0  0  0
 32 33  1  0  0  0  0
M  END
> <PUBCHEM_COMPOUND_CID>
389769

> <PUBCHEM_CONFORMER_RMSD>
0.8

> <PUBCHEM_CONFORMER_DIVERSEORDER>
1
4
2
3

> <PUBCHEM_MMFF94_PARTIAL_CHARGES>
42
1 -0.08
10 -0.56
11 0.06
12 -0.05
13 -0.01
14 0.05
15 0.09
16 0.47
17 0.09
18 0.02
19 0.08
2 -0.34
20 0.09
21 0.47
22 0.1
23 -0.15
24 -0.15
25 -0.15
26 -0.15
27 -0.15
28 -0.15
29 -0.15
3 -0.34
30 -0.15
31 0.54
32 0.57
33 1.08
34 0.15
35 0.15
36 0.15
37 0.15
38 0.15
39 0.37
4 -0.34
40 0.15
41 0.15
42 0.15
5 -0.16
6 -0.57
7 -0.57
8 -0.57
9 -0.49

> <PUBCHEM_EFFECTIVE_ROTOR_COUNT>
3

> <PUBCHEM_PHARMACOPHORE_FEATURES>
11
1 10 acceptor
1 5 acceptor
1 6 acceptor
1 7 acceptor
1 8 acceptor
1 9 donor
5 1 12 13 18 22 rings
6 11 15 16 17 20 21 rings
6 14 19 23 24 27 28 rings
6 17 20 25 26 29 30 rings
7 5 11 12 13 14 15 19 rings

> <PUBCHEM_HEAVY_ATOM_COUNT>
33

> <PUBCHEM_ATOM_DEF_STEREO_COUNT>
0

> <PUBCHEM_ATOM_UDEF_STEREO_COUNT>
0

> <PUBCHEM_BOND_DEF_STEREO_COUNT>
0

> <PUBCHEM_BOND_UDEF_STEREO_COUNT>
0

> <PUBCHEM_ISOTOPIC_ATOM_COUNT>
0

> <PUBCHEM_COMPONENT_COUNT>
1

> <PUBCHEM_CACTVS_TAUTO_COUNT>
3

> <PUBCHEM_CONFORMER_ID>
0005F28900000001

> <PUBCHEM_MMFF94_ENERGY>
105.1469

> <PUBCHEM_FEATURE_SELFOVERLAP>
55.903

> <PUBCHEM_SHAPE_FINGERPRINT>
10050765 1 18410856568932149654
10411042 1 16968577387954448643
10439779 11 18339067290143729520
10675989 125 18125444103068136680
10937287 8 18410293571258574459
1100329 8 18267016167872482099
11007060 377 18341897406934075123
11135609 187 18335123277710685341
12293681 160 17988644064704844297
12788726 201 18193264407195233027
13140716 1 18265901254776156595
13782708 43 13181861833375837893
138480 1 17473544647044700539
14400156 188 17106221404266074442
14790565 3 18266460910278762629
14849402 71 18049442543625968818
14955137 171 17760092817519245362
15064981 194 18044951300577012517
15439362 3 18339084775023617420
15513586 35 16736942637448788500
15664445 248 17766566746109584054
15927050 60 18411138039107484406
16087824 20 18339923844721154519
16112460 7 18267302037037885024
18681886 176 18052811460043158235
19301676 85 17910136624612789342
19319366 153 18269269072183196145
20739085 24 18042977462403873165
21033648 144 18041841706180160365
21781055 127 16557351410249106713
23559900 14 17487331539177567382
23845131 108 18261397698415353763
23929065 36 18053648455164716664
283562 15 18046624787782551770
3178227 256 18049454646832948003
3380486 145 17976839884300719459
394222 165 18194115223178808211
4058900 60 18338524015071325257
4258327 124 17314236750729914812
4409770 3 18191868036139061819
474 4 18336827464170850897
5171179 24 17411893264637838305
59755656 520 18407757041057132772
6034566 193 18042703838701603028
6058803 2 17840296724099869729
7288768 16 18186240636453115771
9981440 41 18337667637473990730

> <PUBCHEM_SHAPE_MULTIPOLES>
627.71
12.22
6.36
1.02
9.05
6.23
0.02
-17.47
1.48
-0.61
-1.62
-0.44
0.02
-1.92

> <PUBCHEM_SHAPE_SELFOVERLAP>
1418.336

> <PUBCHEM_SHAPE_VOLUME>
330.7

> <PUBCHEM_COORDINATE_TYPE>
2
5
10

$$$$
