70826
  -OEChem-02101610493D

 27 27  0     0  0  0  0  0  0999 V2000
   -2.2465    0.2716   -0.4889 O   0  0  0  0  0  0  0  0  0  0  0  0
    3.2578   -1.9532    0.1952 O   0  0  0  0  0  0  0  0  0  0  0  0
    1.9538    2.6506   -0.0134 O   0  0  0  0  0  0  0  0  0  0  0  0
    3.9347    0.7324    0.2463 O   0  0  0  0  0  0  0  0  0  0  0  0
   -1.8094   -1.9873   -0.4148 O   0  0  0  0  0  0  0  0  0  0  0  0
   -3.5839    0.1163   -0.0021 C   0  0  0  0  0  0  0  0  0  0  0  0
   -0.0305   -0.4117   -0.2194 C   0  0  0  0  0  0  0  0  0  0  0  0
   -3.5400   -0.2579    1.4716 C   0  0  0  0  0  0  0  0  0  0  0  0
   -4.3553    1.4061   -0.2367 C   0  0  0  0  0  0  0  0  0  0  0  0
   -1.4190   -0.8126   -0.3805 C   0  0  0  0  0  0  0  0  0  0  0  0
    0.3066    0.9415   -0.1932 C   0  0  0  0  0  0  0  0  0  0  0  0
    0.9642   -1.3809   -0.0889 C   0  0  0  0  0  0  0  0  0  0  0  0
    2.2960   -0.9968    0.0677 C   0  0  0  0  0  0  0  0  0  0  0  0
    1.6384    1.3255   -0.0368 C   0  0  0  0  0  0  0  0  0  0  0  0
    2.6331    0.3564    0.0938 C   0  0  0  0  0  0  0  0  0  0  0  0
   -4.0747   -0.6814   -0.5732 H   0  0  0  0  0  0  0  0  0  0  0  0
   -4.5481   -0.2819    1.8984 H   0  0  0  0  0  0  0  0  0  0  0  0
   -3.0928   -1.2424    1.6380 H   0  0  0  0  0  0  0  0  0  0  0  0
   -2.9407    0.4626    2.0397 H   0  0  0  0  0  0  0  0  0  0  0  0
   -5.3914    1.3199    0.1043 H   0  0  0  0  0  0  0  0  0  0  0  0
   -4.3570    1.6603   -1.3021 H   0  0  0  0  0  0  0  0  0  0  0  0
   -3.8813    2.2446    0.2853 H   0  0  0  0  0  0  0  0  0  0  0  0
   -0.4453    1.7202   -0.2917 H   0  0  0  0  0  0  0  0  0  0  0  0
    0.7164   -2.4395   -0.1068 H   0  0  0  0  0  0  0  0  0  0  0  0
    4.1184   -1.5101    0.2945 H   0  0  0  0  0  0  0  0  0  0  0  0
    1.1408    3.1742   -0.1170 H   0  0  0  0  0  0  0  0  0  0  0  0
    3.9762    1.7045    0.2407 H   0  0  0  0  0  0  0  0  0  0  0  0
  1  6  1  0  0  0  0
  1 10  1  0  0  0  0
  2 13  1  0  0  0  0
  2 25  1  0  0  0  0
  3 14  1  0  0  0  0
  3 26  1  0  0  0  0
  4 15  1  0  0  0  0
  4 27  1  0  0  0  0
  5 10  2  0  0  0  0
  6  8  1  0  0  0  0
  6  9  1  0  0  0  0
  6 16  1  0  0  0  0
  7 10  1  0  0  0  0
  7 11  2  0  0  0  0
  7 12  1  0  0  0  0
  8 17  1  0  0  0  0
  8 18  1  0  0  0  0
  8 19  1  0  0  0  0
  9 20  1  0  0  0  0
  9 21  1  0  0  0  0
  9 22  1  0  0  0  0
 11 14  1  0  0  0  0
 11 23  1  0  0  0  0
 12 13  2  0  0  0  0
 12 24  1  0  0  0  0
 13 15  1  0  0  0  0
 14 15  2  0  0  0  0
M  END
> <PUBCHEM_COMPOUND_CID>
70826

> <PUBCHEM_CONFORMER_RMSD>
0.6

> <PUBCHEM_CONFORMER_DIVERSEORDER>
2
3
11
5
10
7
1
8
4
6
9

> <PUBCHEM_MMFF94_PARTIAL_CHARGES>
18
1 -0.43
10 0.63
11 -0.15
12 -0.15
13 0.08
14 0.08
15 0.08
2 -0.53
23 0.15
24 0.15
25 0.45
26 0.45
27 0.45
3 -0.53
4 -0.53
5 -0.57
6 0.28
7 0.09

> <PUBCHEM_EFFECTIVE_ROTOR_COUNT>
3

> <PUBCHEM_PHARMACOPHORE_FEATURES>
6
1 2 donor
1 3 donor
1 4 donor
1 5 acceptor
3 6 8 9 hydrophobe
6 7 11 12 13 14 15 rings

> <PUBCHEM_HEAVY_ATOM_COUNT>
15

> <PUBCHEM_ATOM_DEF_STEREO_COUNT>
0

> <PUBCHEM_ATOM_UDEF_STEREO_COUNT>
0

> <PUBCHEM_BOND_DEF_STEREO_COUNT>
0

> <PUBCHEM_BOND_UDEF_STEREO_COUNT>
0

> <PUBCHEM_ISOTOPIC_ATOM_COUNT>
0

> <PUBCHEM_COMPONENT_COUNT>
1

> <PUBCHEM_CACTVS_TAUTO_COUNT>
14

> <PUBCHEM_CONFORMER_ID>
000114AA00000002

> <PUBCHEM_MMFF94_ENERGY>
38.6476

> <PUBCHEM_FEATURE_SELFOVERLAP>
30.455

> <PUBCHEM_SHAPE_FINGERPRINT>
10130415 120 18335977567473560706
10219947 1 18342458097412945191
10465860 228 18412267254733821624
10608611 8 18408321116318437029
10980938 120 18411420613510705702
11471102 20 18410568457612976421
11471102 22 18260842521940865705
12251169 10 18411138069166207647
124424 183 18188207590099283359
12507560 40 18260555515510488273
13380535 21 18337117885385142959
13675066 3 18333169466083492417
13922767 16 18339640040842702581
14144814 61 18342176656996270539
14178342 30 18196632198388967458
14897335 6 18342733052887665999
15219456 202 18333453136057549083
15442244 35 18340767039881260875
15501101 241 18259703397840300740
15653759 3 17749115482700677713
15775835 57 18412547647257201085
16945 1 18410284835379406060
17844478 74 17894351064297978021
18186145 218 18130236994733800887
18511873 20 18342454811915918499
200 152 18201992253740332895
20645477 70 18339636733528351231
20871998 22 18126567808726784574
21501502 16 18267298905679983783
22094290 62 18413107260131920009
22854114 111 18337676415880572033
23402655 69 18272360950320045813
23559900 14 17987805254299261180
5104073 3 18410572873103257411
53812653 166 18341607166066198312
7364860 26 18342738537771841028
74978 22 18341331171146036463
7832392 63 18341608252249715124

> <PUBCHEM_SHAPE_MULTIPOLES>
279.35
7.18
2.02
0.79
3.92
0.37
-0.2
1.27
-1.04
-1.1
0.11
0.61
-0.07
0.13

> <PUBCHEM_SHAPE_SELFOVERLAP>
583.092

> <PUBCHEM_SHAPE_VOLUME>
159.5

> <PUBCHEM_COORDINATE_TYPE>
2
5
10

$$$$
