673354
  -OEChem-02101610503D

 36 37  0     0  0  0  0  0  0999 V2000
   -1.6342   -1.8499    0.0319 S   0  0  0  0  0  0  0  0  0  0  0  0
    0.9789   -1.7571    0.8044 O   0  0  0  0  0  0  0  0  0  0  0  0
   -3.0380    2.5122    1.2347 O   0  0  0  0  0  0  0  0  0  0  0  0
   -0.2218    0.2636    0.6971 N   0  0  0  0  0  0  0  0  0  0  0  0
   -2.4183    2.7304   -0.9480 N   0  0  0  0  0  0  0  0  0  0  0  0
   -3.6731   -0.3430   -0.3840 C   0  0  0  0  0  0  0  0  0  0  0  0
   -2.6192    0.5228    0.0277 C   0  0  0  0  0  0  0  0  0  0  0  0
   -1.4801   -0.1750    0.2773 C   0  0  0  0  0  0  0  0  0  0  0  0
   -3.2738   -1.6609   -0.4250 C   0  0  0  0  0  0  0  0  0  0  0  0
    2.0826    0.3052    1.3748 C   0  0  0  0  0  0  0  0  0  0  0  0
   -5.0411    0.1177   -0.7296 C   0  0  0  0  0  0  0  0  0  0  0  0
    0.8920   -0.5397    0.9265 C   0  0  0  0  0  0  0  0  0  0  0  0
    3.2649    0.2144    0.4700 C   0  0  0  0  0  0  0  0  0  0  0  0
   -4.0585   -2.8589   -0.7989 C   0  0  0  0  0  0  0  0  0  0  0  0
   -2.7193    1.9542    0.1685 C   0  0  0  0  0  0  0  0  0  0  0  0
    4.2380   -0.7606    0.6894 C   0  0  0  0  0  0  0  0  0  0  0  0
    3.3977    1.1048   -0.5956 C   0  0  0  0  0  0  0  0  0  0  0  0
    5.3437   -0.8452   -0.1567 C   0  0  0  0  0  0  0  0  0  0  0  0
    4.5033    1.0200   -1.4418 C   0  0  0  0  0  0  0  0  0  0  0  0
    5.4763    0.0450   -1.2225 C   0  0  0  0  0  0  0  0  0  0  0  0
   -0.1442    1.2676    0.8371 H   0  0  0  0  0  0  0  0  0  0  0  0
    1.8009    1.3578    1.5018 H   0  0  0  0  0  0  0  0  0  0  0  0
    2.3521   -0.0354    2.3834 H   0  0  0  0  0  0  0  0  0  0  0  0
   -5.1013    0.3535   -1.7971 H   0  0  0  0  0  0  0  0  0  0  0  0
   -5.7934   -0.6455   -0.5049 H   0  0  0  0  0  0  0  0  0  0  0  0
   -5.3189    1.0141   -0.1658 H   0  0  0  0  0  0  0  0  0  0  0  0
   -4.7562   -3.1204    0.0037 H   0  0  0  0  0  0  0  0  0  0  0  0
   -4.6402   -2.6717   -1.7078 H   0  0  0  0  0  0  0  0  0  0  0  0
   -3.4279   -3.7330   -0.9934 H   0  0  0  0  0  0  0  0  0  0  0  0
    4.1458   -1.4615    1.5149 H   0  0  0  0  0  0  0  0  0  0  0  0
    2.6451    1.8675   -0.7780 H   0  0  0  0  0  0  0  0  0  0  0  0
    6.1013   -1.6047    0.0137 H   0  0  0  0  0  0  0  0  0  0  0  0
    4.6063    1.7128   -2.2719 H   0  0  0  0  0  0  0  0  0  0  0  0
    6.3370   -0.0212   -1.8814 H   0  0  0  0  0  0  0  0  0  0  0  0
   -2.1458    2.3176   -1.8345 H   0  0  0  0  0  0  0  0  0  0  0  0
   -2.4638    3.7431   -0.9067 H   0  0  0  0  0  0  0  0  0  0  0  0
  1  8  1  0  0  0  0
  1  9  1  0  0  0  0
  2 12  2  0  0  0  0
  3 15  2  0  0  0  0
  4  8  1  0  0  0  0
  4 12  1  0  0  0  0
  4 21  1  0  0  0  0
  5 15  1  0  0  0  0
  5 35  1  0  0  0  0
  5 36  1  0  0  0  0
  6  7  1  0  0  0  0
  6  9  2  0  0  0  0
  6 11  1  0  0  0  0
  7  8  2  0  0  0  0
  7 15  1  0  0  0  0
  9 14  1  0  0  0  0
 10 12  1  0  0  0  0
 10 13  1  0  0  0  0
 10 22  1  0  0  0  0
 10 23  1  0  0  0  0
 11 24  1  0  0  0  0
 11 25  1  0  0  0  0
 11 26  1  0  0  0  0
 13 16  2  0  0  0  0
 13 17  1  0  0  0  0
 14 27  1  0  0  0  0
 14 28  1  0  0  0  0
 14 29  1  0  0  0  0
 16 18  1  0  0  0  0
 16 30  1  0  0  0  0
 17 19  2  0  0  0  0
 17 31  1  0  0  0  0
 18 20  2  0  0  0  0
 18 32  1  0  0  0  0
 19 20  1  0  0  0  0
 19 33  1  0  0  0  0
 20 34  1  0  0  0  0
M  END
> <PUBCHEM_COMPOUND_CID>
673354

> <PUBCHEM_CONFORMER_RMSD>
0.8

> <PUBCHEM_CONFORMER_DIVERSEORDER>
2
27
5
26
17
22
16
18
15
25
8
3
28
14
7
24
19
4
23
30
6
11
13
20
29
21
9
1
12
10

> <PUBCHEM_MMFF94_PARTIAL_CHARGES>
28
1 -0.08
10 0.2
11 0.18
12 0.57
13 -0.14
14 0.18
15 0.72
16 -0.15
17 -0.15
18 -0.15
19 -0.15
2 -0.57
20 -0.15
21 0.37
3 -0.57
30 0.15
31 0.15
32 0.15
33 0.15
34 0.15
35 0.37
36 0.37
4 -0.49
5 -0.8
6 -0.18
7 -0.09
8 0.1
9 -0.14

> <PUBCHEM_EFFECTIVE_ROTOR_COUNT>
5

> <PUBCHEM_PHARMACOPHORE_FEATURES>
6
1 2 acceptor
1 3 acceptor
1 4 donor
1 5 donor
5 1 6 7 8 9 rings
6 13 16 17 18 19 20 rings

> <PUBCHEM_HEAVY_ATOM_COUNT>
20

> <PUBCHEM_ATOM_DEF_STEREO_COUNT>
0

> <PUBCHEM_ATOM_UDEF_STEREO_COUNT>
0

> <PUBCHEM_BOND_DEF_STEREO_COUNT>
0

> <PUBCHEM_BOND_UDEF_STEREO_COUNT>
0

> <PUBCHEM_ISOTOPIC_ATOM_COUNT>
0

> <PUBCHEM_COMPONENT_COUNT>
1

> <PUBCHEM_CACTVS_TAUTO_COUNT>
7

> <PUBCHEM_CONFORMER_ID>
000A464A00000002

> <PUBCHEM_MMFF94_ENERGY>
55.5433

> <PUBCHEM_FEATURE_SELFOVERLAP>
30.446

> <PUBCHEM_SHAPE_FINGERPRINT>
10369192 42 17197675401894471240
10498660 4 18334566979869963517
10595046 47 18409168852952931102
10670039 82 18261395516508559876
10871710 139 17967814920955279405
11128504 68 18041278867610895926
12107183 9 17758108203573295506
12236239 1 17967531272455610407
12390115 104 17916312632869960601
12670546 177 18413112779423176572
12954195 1 18202007594603780835
14251751 93 18272649030545027054
14251757 5 18337393862835830807
14347332 77 18412820304677128751
15183329 4 18187933842322918726
15575132 122 17967530134706366325
15842332 3 17968922094450939539
15961568 22 18192982949715253320
16994733 274 14780363723842382983
17870717 6 18131639984160566983
18186145 218 17988927782002012752
1986462 14 18273495667330341304
20300324 65 18410295843074643425
20325693 3 18413111666926621259
20645477 70 16128654159300269626
20871999 31 18342462547267978840
21033648 29 14129052642981435398
21033650 10 18194710115051682428
21065201 7 18272642442344724458
21267235 1 18339642356458270775
21857420 4 15974363235353447518
221357 26 18272649064825507448
22907989 373 18263906809672133445
2297311 6 18343587377949666639
23175994 123 16487255491005118411
23366157 5 17899974937299303507
23402539 116 18409442622099261151
23402655 69 18259993673911856340
23557571 272 17989211412530442757
23559900 14 18200864188336659840
238078 22 18262235655161680499
25147074 1 18263071129000133867
3004659 81 18338235960843150266
3298306 158 17846780676474419558
4214541 1 18412825763785829016
474 4 17312825982996120610
58051976 100 18343862225264234463
59755656 215 18131351869533681847
621550 5 17631170973457929427
633830 44 17313109601393737930

> <PUBCHEM_SHAPE_MULTIPOLES>
393.74
12.19
2.46
1.21
9.35
0.39
-0.03
-1.14
-4.37
-3.65
-0.22
0.8
0.22
-1.2

> <PUBCHEM_SHAPE_SELFOVERLAP>
825.543

> <PUBCHEM_SHAPE_VOLUME>
224

> <PUBCHEM_COORDINATE_TYPE>
2
5
10

$$$$
