9586239
  -OEChem-02101610513D

 42 45  0     0  0  0  0  0  0999 V2000
   -1.7390   -0.8431    0.5511 S   0  0  0  0  0  0  0  0  0  0  0  0
    3.2087   -1.4531    1.6587 S   0  0  0  0  0  0  0  0  0  0  0  0
   -1.6593   -1.0102    1.9911 O   0  0  0  0  0  0  0  0  0  0  0  0
   -1.2059   -1.8618   -0.3359 O   0  0  0  0  0  0  0  0  0  0  0  0
    4.1890    1.2214    0.8351 O   0  0  0  0  0  0  0  0  0  0  0  0
   -1.1540    0.6115    0.1085 N   0  0  0  0  0  0  0  0  0  0  0  0
    4.3795   -3.3228    0.1130 N   0  0  0  0  0  0  0  0  0  0  0  0
    3.2649   -1.8453   -1.0489 N   0  0  0  0  0  0  0  0  0  0  0  0
    4.5595   -3.7282   -1.1532 N   0  0  0  0  0  0  0  0  0  0  0  0
    0.8069    2.0881   -0.0991 C   0  0  0  0  0  0  0  0  0  0  0  0
    2.1872    2.2086    0.1034 C   0  0  0  0  0  0  0  0  0  0  0  0
    0.1172    0.8232    0.2538 C   0  0  0  0  0  0  0  0  0  0  0  0
    2.9813    1.0945    0.6656 C   0  0  0  0  0  0  0  0  0  0  0  0
    0.9440   -0.2731    0.8118 C   0  0  0  0  0  0  0  0  0  0  0  0
    2.2607   -0.1588    1.0051 C   0  0  0  0  0  0  0  0  0  0  0  0
   -3.4679   -0.7029    0.1925 C   0  0  0  0  0  0  0  0  0  0  0  0
    0.1012    3.1746   -0.6364 C   0  0  0  0  0  0  0  0  0  0  0  0
    2.8478    3.4012   -0.2276 C   0  0  0  0  0  0  0  0  0  0  0  0
    0.7645    4.3593   -0.9647 C   0  0  0  0  0  0  0  0  0  0  0  0
   -3.9269   -1.0684   -1.0590 C   0  0  0  0  0  0  0  0  0  0  0  0
   -4.3210   -0.2309    1.1724 C   0  0  0  0  0  0  0  0  0  0  0  0
    2.1353    4.4729   -0.7607 C   0  0  0  0  0  0  0  0  0  0  0  0
   -6.1664   -0.4843   -0.3663 C   0  0  0  0  0  0  0  0  0  0  0  0
   -5.2885   -0.9582   -1.3411 C   0  0  0  0  0  0  0  0  0  0  0  0
   -5.6828   -0.1208    0.8906 C   0  0  0  0  0  0  0  0  0  0  0  0
   -7.6224   -0.3677   -0.6670 C   0  0  0  0  0  0  0  0  0  0  0  0
    3.6208   -2.2245    0.1237 C   0  0  0  0  0  0  0  0  0  0  0  0
    3.8657   -2.8012   -1.8169 C   0  0  0  0  0  0  0  0  0  0  0  0
    0.5483   -1.2324    1.1079 H   0  0  0  0  0  0  0  0  0  0  0  0
   -0.9709    3.1130   -0.8062 H   0  0  0  0  0  0  0  0  0  0  0  0
    3.9184    3.5149   -0.0780 H   0  0  0  0  0  0  0  0  0  0  0  0
    0.2068    5.1937   -1.3803 H   0  0  0  0  0  0  0  0  0  0  0  0
   -3.2583   -1.4321   -1.8330 H   0  0  0  0  0  0  0  0  0  0  0  0
   -3.9641    0.0659    2.1536 H   0  0  0  0  0  0  0  0  0  0  0  0
    2.6494    5.3948   -1.0163 H   0  0  0  0  0  0  0  0  0  0  0  0
   -5.6533   -1.2449   -2.3239 H   0  0  0  0  0  0  0  0  0  0  0  0
   -6.3569    0.2499    1.6582 H   0  0  0  0  0  0  0  0  0  0  0  0
   -8.1357   -1.2983   -0.4053 H   0  0  0  0  0  0  0  0  0  0  0  0
   -8.0774    0.4546   -0.1044 H   0  0  0  0  0  0  0  0  0  0  0  0
   -7.7913   -0.1606   -1.7293 H   0  0  0  0  0  0  0  0  0  0  0  0
    4.8014   -3.8457    0.8719 H   0  0  0  0  0  0  0  0  0  0  0  0
    3.7951   -2.8231   -2.8943 H   0  0  0  0  0  0  0  0  0  0  0  0
  1  3  2  0  0  0  0
  1  4  2  0  0  0  0
  1  6  1  0  0  0  0
  1 16  1  0  0  0  0
  2 15  1  0  0  0  0
  2 27  1  0  0  0  0
  5 13  2  0  0  0  0
  6 12  2  0  0  0  0
  7  9  1  0  0  0  0
  7 27  1  0  0  0  0
  7 41  1  0  0  0  0
  8 27  2  0  0  0  0
  8 28  1  0  0  0  0
  9 28  2  0  0  0  0
 10 11  1  0  0  0  0
 10 12  1  0  0  0  0
 10 17  2  0  0  0  0
 11 13  1  0  0  0  0
 11 18  2  0  0  0  0
 12 14  1  0  0  0  0
 13 15  1  0  0  0  0
 14 15  2  0  0  0  0
 14 29  1  0  0  0  0
 16 20  2  0  0  0  0
 16 21  1  0  0  0  0
 17 19  1  0  0  0  0
 17 30  1  0  0  0  0
 18 22  1  0  0  0  0
 18 31  1  0  0  0  0
 19 22  2  0  0  0  0
 19 32  1  0  0  0  0
 20 24  1  0  0  0  0
 20 33  1  0  0  0  0
 21 25  2  0  0  0  0
 21 34  1  0  0  0  0
 22 35  1  0  0  0  0
 23 24  2  0  0  0  0
 23 25  1  0  0  0  0
 23 26  1  0  0  0  0
 24 36  1  0  0  0  0
 25 37  1  0  0  0  0
 26 38  1  0  0  0  0
 26 39  1  0  0  0  0
 26 40  1  0  0  0  0
 28 42  1  0  0  0  0
M  END
> <PUBCHEM_COMPOUND_CID>
9586239

> <PUBCHEM_CONFORMER_RMSD>
0.8

> <PUBCHEM_CONFORMER_DIVERSEORDER>
1
9
6
7
4
5
10
2
3
8

> <PUBCHEM_MMFF94_PARTIAL_CHARGES>
39
1 1.5
10 0.09
11 0.09
12 0.35
13 0.47
14 -0.14
15 0.12
16 -0.01
17 -0.15
18 -0.15
19 -0.15
2 -0.16
20 -0.15
21 -0.15
22 -0.15
23 -0.14
24 -0.15
25 -0.15
26 0.14
27 0.24
28 0.37
29 0.15
3 -0.65
30 0.15
31 0.15
32 0.15
33 0.15
34 0.15
35 0.15
36 0.15
37 0.15
4 -0.65
41 0.27
42 0.15
5 -0.57
6 -0.64
7 0.3
8 -0.57
9 -0.71

> <PUBCHEM_EFFECTIVE_ROTOR_COUNT>
4

> <PUBCHEM_PHARMACOPHORE_FEATURES>
12
1 3 acceptor
1 4 acceptor
1 5 acceptor
1 6 acceptor
1 6 donor
1 7 donor
3 7 8 27 cation
3 8 9 28 cation
5 7 8 9 27 28 rings
6 10 11 12 13 14 15 rings
6 10 11 17 18 19 22 rings
6 16 20 21 23 24 25 rings

> <PUBCHEM_HEAVY_ATOM_COUNT>
28

> <PUBCHEM_ATOM_DEF_STEREO_COUNT>
0

> <PUBCHEM_ATOM_UDEF_STEREO_COUNT>
0

> <PUBCHEM_BOND_DEF_STEREO_COUNT>
1

> <PUBCHEM_BOND_UDEF_STEREO_COUNT>
0

> <PUBCHEM_ISOTOPIC_ATOM_COUNT>
0

> <PUBCHEM_COMPONENT_COUNT>
1

> <PUBCHEM_CACTVS_TAUTO_COUNT>
3

> <PUBCHEM_CONFORMER_ID>
0092463F00000001

> <PUBCHEM_MMFF94_ENERGY>
73.9036

> <PUBCHEM_FEATURE_SELFOVERLAP>
63.819

> <PUBCHEM_SHAPE_FINGERPRINT>
10411042 1 18263355894079983642
10554248 39 18342444968737041797
10815517 723 17981896233397421721
10906281 52 18115594884518727912
11135609 149 18195221374340753183
11297750 10 18196640810409832090
12107183 9 18056208977491655401
12166972 35 18272652329638728857
12422481 6 17773879705783619927
12788726 201 17826523167133732114
13533116 47 17917708007076708011
13690498 29 17980774744643330454
13785724 45 18340210678634609679
14114206 34 17387992875537392256
14556957 393 17828802506625626318
14790565 3 17031636015968818813
14918310 93 17988934332064711478
15081414 286 18408322206855196792
15420108 30 17762881566018403360
15475509 8 18267029345453975899
16989378 47 17916609603439569390
17818456 19 17845666837125621609
1813 80 18340488863576875970
18335252 114 18337375090715065221
1979834 28 18342163514660199880
21033648 144 17682663370650699509
21033648 29 16444446036607445245
21279426 13 18188478070329287133
21365058 113 18335150752019852773
21860390 5 18335983180974620444
22033318 11 18054542165367421201
23559900 14 18339079401249390514
24771750 20 17682420361395609468
255183 451 18342461396095652038
3004659 81 17632302271943646215
3103668 31 17900820444962029997
340366 18 18342733031608599815
376196 1 17682955853301548776
38695281 34 17905892827203029908
394071 54 18410293639830345729
4017518 198 17984711275976262676
4144715 1 18186808019856966641
46194498 28 18334566984592140637
5081480 168 18259703393819828813
513532 50 18059582433420452468
5372103 7 16662077892094528766
57724786 102 18336272335949208489
5969126 39 18266178319396902390
60123966 16 18261943133407492813
6695519 79 17405727246706193283
70251023 43 18266742389909572338
8272917 22 18264204884154207956
9658208 31 16877943875946233547
9841814 1 18114169844107073704
9971528 1 18412823586216194171

> <PUBCHEM_SHAPE_MULTIPOLES>
546.39
13.21
5
1.43
25.66
3.99
-0.03
-8.22
2.3
-10.15
2.47
-0.28
-0.81
0.65

> <PUBCHEM_SHAPE_SELFOVERLAP>
1186.925

> <PUBCHEM_SHAPE_VOLUME>
299.3

> <PUBCHEM_COORDINATE_TYPE>
2
5
10

$$$$
