767151
  -OEChem-02101610513D

 29 30  0     0  0  0  0  0  0999 V2000
    4.8564   -0.6712    0.0406 Br  0  0  0  0  0  0  0  0  0  0  0  0
    1.0309    2.9714   -0.4046 O   0  0  0  0  0  0  0  0  0  0  0  0
   -0.8319    2.2036    0.6474 O   0  0  0  0  0  0  0  0  0  0  0  0
   -1.2047   -0.4727   -0.0439 N   0  0  0  0  0  0  0  0  0  0  0  0
   -1.9894   -0.3826   -1.1732 C   0  0  0  0  0  0  0  0  0  0  0  0
   -2.0263   -0.5344    1.0607 C   0  0  0  0  0  0  0  0  0  0  0  0
    0.1802   -0.4976   -0.0232 C   0  0  0  0  0  0  0  0  0  0  0  0
   -3.3103   -0.3863   -0.7831 C   0  0  0  0  0  0  0  0  0  0  0  0
   -3.3337   -0.4825    0.6302 C   0  0  0  0  0  0  0  0  0  0  0  0
    0.9204    0.6810    0.0686 C   0  0  0  0  0  0  0  0  0  0  0  0
    0.8339   -1.7276   -0.0958 C   0  0  0  0  0  0  0  0  0  0  0  0
   -1.4131   -0.2998   -2.5333 C   0  0  0  0  0  0  0  0  0  0  0  0
   -1.4956   -0.6377    2.4375 C   0  0  0  0  0  0  0  0  0  0  0  0
    2.3142    0.6298    0.0877 C   0  0  0  0  0  0  0  0  0  0  0  0
    2.2278   -1.7790   -0.0768 C   0  0  0  0  0  0  0  0  0  0  0  0
    2.9679   -0.6003    0.0151 C   0  0  0  0  0  0  0  0  0  0  0  0
    0.2732    1.9859    0.1460 C   0  0  0  0  0  0  0  0  0  0  0  0
   -4.1657   -0.3265   -1.4417 H   0  0  0  0  0  0  0  0  0  0  0  0
   -4.2106   -0.5104    1.2623 H   0  0  0  0  0  0  0  0  0  0  0  0
    0.2718   -2.6558   -0.1678 H   0  0  0  0  0  0  0  0  0  0  0  0
   -0.7868    0.5913   -2.6428 H   0  0  0  0  0  0  0  0  0  0  0  0
   -0.8093   -1.1843   -2.7604 H   0  0  0  0  0  0  0  0  0  0  0  0
   -2.2043   -0.2396   -3.2883 H   0  0  0  0  0  0  0  0  0  0  0  0
   -0.9107   -1.5543    2.5653 H   0  0  0  0  0  0  0  0  0  0  0  0
   -0.8625    0.2193    2.6870 H   0  0  0  0  0  0  0  0  0  0  0  0
   -2.3116   -0.6652    3.1676 H   0  0  0  0  0  0  0  0  0  0  0  0
    2.9065    1.5380    0.1734 H   0  0  0  0  0  0  0  0  0  0  0  0
    2.7216   -2.7456   -0.1343 H   0  0  0  0  0  0  0  0  0  0  0  0
    0.5897    3.8458   -0.3486 H   0  0  0  0  0  0  0  0  0  0  0  0
  1 16  1  0  0  0  0
  2 17  1  0  0  0  0
  2 29  1  0  0  0  0
  3 17  2  0  0  0  0
  4  5  1  0  0  0  0
  4  6  1  0  0  0  0
  4  7  1  0  0  0  0
  5  8  2  0  0  0  0
  5 12  1  0  0  0  0
  6  9  2  0  0  0  0
  6 13  1  0  0  0  0
  7 10  2  0  0  0  0
  7 11  1  0  0  0  0
  8  9  1  0  0  0  0
  8 18  1  0  0  0  0
  9 19  1  0  0  0  0
 10 14  1  0  0  0  0
 10 17  1  0  0  0  0
 11 15  2  0  0  0  0
 11 20  1  0  0  0  0
 12 21  1  0  0  0  0
 12 22  1  0  0  0  0
 12 23  1  0  0  0  0
 13 24  1  0  0  0  0
 13 25  1  0  0  0  0
 13 26  1  0  0  0  0
 14 16  2  0  0  0  0
 14 27  1  0  0  0  0
 15 16  1  0  0  0  0
 15 28  1  0  0  0  0
M  END
> <PUBCHEM_COMPOUND_CID>
767151

> <PUBCHEM_CONFORMER_RMSD>
0.6

> <PUBCHEM_CONFORMER_DIVERSEORDER>
1

> <PUBCHEM_MMFF94_PARTIAL_CHARGES>
23
1 -0.11
10 0.09
11 -0.15
12 0.18
13 0.18
14 -0.15
15 -0.15
16 0.11
17 0.63
18 0.15
19 0.15
2 -0.65
20 0.15
27 0.15
28 0.15
29 0.5
3 -0.57
4 0.33
5 -0.33
6 -0.33
7 -0.02
8 -0.15
9 -0.15

> <PUBCHEM_EFFECTIVE_ROTOR_COUNT>
2

> <PUBCHEM_PHARMACOPHORE_FEATURES>
7
1 1 hydrophobe
1 2 acceptor
1 3 acceptor
1 4 cation
3 2 3 17 anion
5 4 5 6 8 9 rings
6 7 10 11 14 15 16 rings

> <PUBCHEM_HEAVY_ATOM_COUNT>
17

> <PUBCHEM_ATOM_DEF_STEREO_COUNT>
0

> <PUBCHEM_ATOM_UDEF_STEREO_COUNT>
0

> <PUBCHEM_BOND_DEF_STEREO_COUNT>
0

> <PUBCHEM_BOND_UDEF_STEREO_COUNT>
0

> <PUBCHEM_ISOTOPIC_ATOM_COUNT>
0

> <PUBCHEM_COMPONENT_COUNT>
1

> <PUBCHEM_CACTVS_TAUTO_COUNT>
1

> <PUBCHEM_CONFORMER_ID>
000BB4AF00000001

> <PUBCHEM_MMFF94_ENERGY>
61.4744

> <PUBCHEM_FEATURE_SELFOVERLAP>
35.578

> <PUBCHEM_SHAPE_FINGERPRINT>
104564 63 18269839714032888300
12236239 1 17632858637733294967
13140716 1 18267860773939982650
13898156 1 17059223703274614493
14817 1 15649835656885915437
16945 1 18339090370579942419
1813 80 18201455657352747244
19010151 120 18202562890783140258
200 152 18411130325229695550
20201158 50 18186520994638225898
21061003 4 18334584554823241866
21501502 16 18050566244989077522
22112679 90 17346037899838879661
2306618 200 17313388859929829782
23175994 123 18261116257339029508
232386 152 16271352149438298847
23388829 49 18272089404927902024
23402539 116 18342448228184825558
23419403 2 17533805915587762504
23493267 7 17386277714881195184
23526113 38 17968085400520079115
23559900 14 16950559966204195674
2748010 2 18125443008188677190
3286 77 18189902087815375611
34934 24 18195244421135068177
568465 68 17969241043033333090
63268167 104 18200874109679347849
6992083 37 17704075109391159095
77492 1 17632580486992550191
81228 2 18118970178851724536

> <PUBCHEM_SHAPE_MULTIPOLES>
339.07
5.94
2.02
1.6
4.87
1.72
-0.12
-2.13
-0.05
0.77
0.07
-1.65
-0.35
0.05

> <PUBCHEM_SHAPE_SELFOVERLAP>
721.047

> <PUBCHEM_SHAPE_VOLUME>
195.8

> <PUBCHEM_COORDINATE_TYPE>
2
5
10

$$$$
