776845
  -OEChem-02101610513D

 32 33  0     0  0  0  0  0  0999 V2000
   -4.4087   -0.0077    1.3306 O   0  0  0  0  0  0  0  0  0  0  0  0
   -4.5815    0.0053   -0.9358 O   0  0  0  0  0  0  0  0  0  0  0  0
    1.7526   -0.0006    0.1590 N   0  0  0  0  0  0  0  0  0  0  0  0
    0.3682   -0.0006    0.1217 C   0  0  0  0  0  0  0  0  0  0  0  0
    2.5560   -1.1206    0.1749 C   0  0  0  0  0  0  0  0  0  0  0  0
    2.5564    1.1187    0.1856 C   0  0  0  0  0  0  0  0  0  0  0  0
   -0.3166    0.0055   -1.0934 C   0  0  0  0  0  0  0  0  0  0  0  0
    3.8701   -0.7098    0.2128 C   0  0  0  0  0  0  0  0  0  0  0  0
    3.8704    0.7070    0.2194 C   0  0  0  0  0  0  0  0  0  0  0  0
   -0.3417   -0.0068    1.3223 C   0  0  0  0  0  0  0  0  0  0  0  0
   -1.7114    0.0058   -1.1080 C   0  0  0  0  0  0  0  0  0  0  0  0
    2.0022   -2.4923    0.1533 C   0  0  0  0  0  0  0  0  0  0  0  0
    2.0034    2.4905    0.1769 C   0  0  0  0  0  0  0  0  0  0  0  0
   -2.4214   -0.0001    0.0926 C   0  0  0  0  0  0  0  0  0  0  0  0
   -1.7365   -0.0065    1.3077 C   0  0  0  0  0  0  0  0  0  0  0  0
    0.4141    0.0120   -2.3976 C   0  0  0  0  0  0  0  0  0  0  0  0
   -3.8756    0.0000    0.0781 C   0  0  0  0  0  0  0  0  0  0  0  0
    4.7361   -1.3569    0.2331 H   0  0  0  0  0  0  0  0  0  0  0  0
    4.7366    1.3536    0.2458 H   0  0  0  0  0  0  0  0  0  0  0  0
    0.1776   -0.0117    2.2779 H   0  0  0  0  0  0  0  0  0  0  0  0
   -2.2431    0.0107   -2.0567 H   0  0  0  0  0  0  0  0  0  0  0  0
    2.8057   -3.2363    0.1742 H   0  0  0  0  0  0  0  0  0  0  0  0
    1.3654   -2.6736    1.0252 H   0  0  0  0  0  0  0  0  0  0  0  0
    1.4151   -2.6702   -0.7529 H   0  0  0  0  0  0  0  0  0  0  0  0
    1.3661    2.6638    1.0501 H   0  0  0  0  0  0  0  0  0  0  0  0
    2.8072    3.2340    0.2054 H   0  0  0  0  0  0  0  0  0  0  0  0
    1.4170    2.6775   -0.7279 H   0  0  0  0  0  0  0  0  0  0  0  0
   -2.2493   -0.0113    2.2655 H   0  0  0  0  0  0  0  0  0  0  0  0
    1.0385    0.9060   -2.4907 H   0  0  0  0  0  0  0  0  0  0  0  0
    1.0394   -0.8804   -2.4990 H   0  0  0  0  0  0  0  0  0  0  0  0
   -0.2763    0.0157   -3.2486 H   0  0  0  0  0  0  0  0  0  0  0  0
   -5.3895   -0.0079    1.3097 H   0  0  0  0  0  0  0  0  0  0  0  0
  1 17  1  0  0  0  0
  1 32  1  0  0  0  0
  2 17  2  0  0  0  0
  3  4  1  0  0  0  0
  3  5  1  0  0  0  0
  3  6  1  0  0  0  0
  4  7  2  0  0  0  0
  4 10  1  0  0  0  0
  5  8  2  0  0  0  0
  5 12  1  0  0  0  0
  6  9  2  0  0  0  0
  6 13  1  0  0  0  0
  7 11  1  0  0  0  0
  7 16  1  0  0  0  0
  8  9  1  0  0  0  0
  8 18  1  0  0  0  0
  9 19  1  0  0  0  0
 10 15  2  0  0  0  0
 10 20  1  0  0  0  0
 11 14  2  0  0  0  0
 11 21  1  0  0  0  0
 12 22  1  0  0  0  0
 12 23  1  0  0  0  0
 12 24  1  0  0  0  0
 13 25  1  0  0  0  0
 13 26  1  0  0  0  0
 13 27  1  0  0  0  0
 14 15  1  0  0  0  0
 14 17  1  0  0  0  0
 15 28  1  0  0  0  0
 16 29  1  0  0  0  0
 16 30  1  0  0  0  0
 16 31  1  0  0  0  0
M  END
> <PUBCHEM_COMPOUND_CID>
776845

> <PUBCHEM_CONFORMER_RMSD>
0.6

> <PUBCHEM_CONFORMER_DIVERSEORDER>
1

> <PUBCHEM_MMFF94_PARTIAL_CHARGES>
23
1 -0.65
10 -0.15
11 -0.15
12 0.18
13 0.18
14 0.09
15 -0.15
16 0.14
17 0.63
18 0.15
19 0.15
2 -0.57
20 0.15
21 0.15
28 0.15
3 0.33
32 0.5
4 -0.02
5 -0.33
6 -0.33
7 -0.14
8 -0.15
9 -0.15

> <PUBCHEM_EFFECTIVE_ROTOR_COUNT>
2

> <PUBCHEM_PHARMACOPHORE_FEATURES>
6
1 1 acceptor
1 2 acceptor
1 3 cation
3 1 2 17 anion
5 3 5 6 8 9 rings
6 4 7 10 11 14 15 rings

> <PUBCHEM_HEAVY_ATOM_COUNT>
17

> <PUBCHEM_ATOM_DEF_STEREO_COUNT>
0

> <PUBCHEM_ATOM_UDEF_STEREO_COUNT>
0

> <PUBCHEM_BOND_DEF_STEREO_COUNT>
0

> <PUBCHEM_BOND_UDEF_STEREO_COUNT>
0

> <PUBCHEM_ISOTOPIC_ATOM_COUNT>
0

> <PUBCHEM_COMPONENT_COUNT>
1

> <PUBCHEM_CACTVS_TAUTO_COUNT>
1

> <PUBCHEM_CONFORMER_ID>
000BDA8D00000001

> <PUBCHEM_MMFF94_ENERGY>
61.6114

> <PUBCHEM_FEATURE_SELFOVERLAP>
30.503

> <PUBCHEM_SHAPE_FINGERPRINT>
11132069 177 16225763004442488759
11471102 20 18409444795705939192
12236239 1 17632576054913147098
12670546 56 18130781235778188457
13538477 17 17417519323966550582
13583140 156 18339921619157032847
13675066 3 17749395866966704681
13760787 19 18131349734966590599
14115302 16 17417807391633528012
14252887 29 17531253833061529187
14289901 80 18411979174366110539
14993402 34 17131833191846291456
15342168 16 18119526793950209700
15375358 24 17313101951592870115
15375462 478 18131070411436244296
15375462 6 18410008819142812677
15501101 241 18113618980270705156
15775835 57 17632294618364581200
15848700 24 16588021333618000911
16945 1 18410847768189868364
1813 80 17915471502237507054
18175812 5 17822292426535524138
18186145 218 18343023298060877493
19026448 4 18187081754674888041
19026448 5 18201999932735520107
19049666 15 17823967940416865060
200 152 18343578529826238235
20233049 118 14417849237256117175
20279233 1 17676490531577212170
20344682 1 17603586322750863726
20559304 39 17346598552095437578
20645476 183 17703505622434151517
20645477 70 18336818693863878863
22892500 29 18335416893837027412
23402539 116 16588015831696433290
23493267 7 17418103160288117999
23532345 42 16371005247349546204
23557571 272 16733261245122519518
23559900 14 16443345343510332082
23728640 28 15238063617346275690
2748010 2 15793676834844059687
296302 2 18114185267113028374
3060560 45 18412545423049853798
3286 77 18187077317804983114
474 4 17915163849092541392
69090 78 18114176462736416723
77492 1 17703783734857559836
81228 2 16299794122672596444
8272917 22 18343026544898170543
9981440 41 16407568592579079264

> <PUBCHEM_SHAPE_MULTIPOLES>
333.13
7.36
1.58
1.45
5.2
0
-0.64
0
1.12
-2.09
0.17
0.79
0
0.01

> <PUBCHEM_SHAPE_SELFOVERLAP>
720.086

> <PUBCHEM_SHAPE_VOLUME>
186.7

> <PUBCHEM_COORDINATE_TYPE>
2
5
10

$$$$
