2756467
  -OEChem-02101610513D

 38 39  0     0  0  0  0  0  0999 V2000
   -1.4800   -1.5827   -0.6489 S   0  0  0  0  0  0  0  0  0  0  0  0
   -5.5616   -0.4510    0.6579 O   0  0  0  0  0  0  0  0  0  0  0  0
    0.5842    1.6119   -0.6495 O   0  0  0  0  0  0  0  0  0  0  0  0
    6.7267   -0.1591    0.3109 O   0  0  0  0  0  0  0  0  0  0  0  0
   -5.1337    1.6768   -0.0830 O   0  0  0  0  0  0  0  0  0  0  0  0
    1.2042   -0.5446   -0.0212 N   0  0  0  0  0  0  0  0  0  0  0  0
   -4.0571   -2.2949   -0.5572 N   0  0  0  0  0  0  0  0  0  0  0  0
   -2.2175    0.8030   -0.0448 C   0  0  0  0  0  0  0  0  0  0  0  0
   -1.1382    0.0407   -0.3198 C   0  0  0  0  0  0  0  0  0  0  0  0
   -3.4089    0.0237   -0.1028 C   0  0  0  0  0  0  0  0  0  0  0  0
   -3.1519   -1.2916   -0.4213 C   0  0  0  0  0  0  0  0  0  0  0  0
   -2.1882    2.2525    0.2758 C   0  0  0  0  0  0  0  0  0  0  0  0
    0.2739    0.4573   -0.3640 C   0  0  0  0  0  0  0  0  0  0  0  0
    2.5935   -0.4471    0.0628 C   0  0  0  0  0  0  0  0  0  0  0  0
   -4.7409    0.5229    0.1382 C   0  0  0  0  0  0  0  0  0  0  0  0
    3.2258    0.7652   -0.2127 C   0  0  0  0  0  0  0  0  0  0  0  0
    3.3501   -1.5629    0.4210 C   0  0  0  0  0  0  0  0  0  0  0  0
    5.3716   -0.2540    0.2282 C   0  0  0  0  0  0  0  0  0  0  0  0
    4.6148    0.8617   -0.1301 C   0  0  0  0  0  0  0  0  0  0  0  0
    4.7392   -1.4664    0.5037 C   0  0  0  0  0  0  0  0  0  0  0  0
   -6.9140   -0.0721    0.9387 C   0  0  0  0  0  0  0  0  0  0  0  0
    7.3081    1.1107    0.0181 C   0  0  0  0  0  0  0  0  0  0  0  0
   -2.9907    2.5328    0.9651 H   0  0  0  0  0  0  0  0  0  0  0  0
   -1.2576    2.5435    0.7730 H   0  0  0  0  0  0  0  0  0  0  0  0
   -2.2930    2.8471   -0.6374 H   0  0  0  0  0  0  0  0  0  0  0  0
    0.8208   -1.4609    0.2022 H   0  0  0  0  0  0  0  0  0  0  0  0
    2.7162    1.6745   -0.4961 H   0  0  0  0  0  0  0  0  0  0  0  0
    2.8705   -2.5140    0.6381 H   0  0  0  0  0  0  0  0  0  0  0  0
   -3.7684   -3.2384   -0.7948 H   0  0  0  0  0  0  0  0  0  0  0  0
   -5.0549   -2.1547   -0.4363 H   0  0  0  0  0  0  0  0  0  0  0  0
    5.0427    1.8325   -0.3567 H   0  0  0  0  0  0  0  0  0  0  0  0
    5.3233   -2.3388    0.7836 H   0  0  0  0  0  0  0  0  0  0  0  0
   -7.4157    0.2431    0.0191 H   0  0  0  0  0  0  0  0  0  0  0  0
   -6.9344    0.7273    1.6851 H   0  0  0  0  0  0  0  0  0  0  0  0
   -7.4343   -0.9445    1.3424 H   0  0  0  0  0  0  0  0  0  0  0  0
    6.9844    1.8757    0.7320 H   0  0  0  0  0  0  0  0  0  0  0  0
    7.1247    1.4074   -1.0202 H   0  0  0  0  0  0  0  0  0  0  0  0
    8.3917    1.0043    0.1333 H   0  0  0  0  0  0  0  0  0  0  0  0
  1  9  1  0  0  0  0
  1 11  1  0  0  0  0
  2 15  1  0  0  0  0
  2 21  1  0  0  0  0
  3 13  2  0  0  0  0
  4 18  1  0  0  0  0
  4 22  1  0  0  0  0
  5 15  2  0  0  0  0
  6 13  1  0  0  0  0
  6 14  1  0  0  0  0
  6 26  1  0  0  0  0
  7 11  1  0  0  0  0
  7 29  1  0  0  0  0
  7 30  1  0  0  0  0
  8  9  2  0  0  0  0
  8 10  1  0  0  0  0
  8 12  1  0  0  0  0
  9 13  1  0  0  0  0
 10 11  2  0  0  0  0
 10 15  1  0  0  0  0
 12 23  1  0  0  0  0
 12 24  1  0  0  0  0
 12 25  1  0  0  0  0
 14 16  2  0  0  0  0
 14 17  1  0  0  0  0
 16 19  1  0  0  0  0
 16 27  1  0  0  0  0
 17 20  2  0  0  0  0
 17 28  1  0  0  0  0
 18 19  2  0  0  0  0
 18 20  1  0  0  0  0
 19 31  1  0  0  0  0
 20 32  1  0  0  0  0
 21 33  1  0  0  0  0
 21 34  1  0  0  0  0
 21 35  1  0  0  0  0
 22 36  1  0  0  0  0
 22 37  1  0  0  0  0
 22 38  1  0  0  0  0
M  END
> <PUBCHEM_COMPOUND_CID>
2756467

> <PUBCHEM_CONFORMER_RMSD>
0.8

> <PUBCHEM_CONFORMER_DIVERSEORDER>
1
7
12
8
3
9
4
6
10
11
5
2

> <PUBCHEM_MMFF94_PARTIAL_CHARGES>
29
1 -0.08
10 -0.09
11 0.12
12 0.18
13 0.71
14 0.12
15 0.81
16 -0.15
17 -0.15
18 0.08
19 -0.15
2 -0.43
20 -0.15
21 0.28
22 0.28
26 0.37
27 0.15
28 0.15
29 0.4
3 -0.57
30 0.4
31 0.15
32 0.15
4 -0.36
5 -0.57
6 -0.55
7 -0.88
8 -0.18
9 -0.05

> <PUBCHEM_EFFECTIVE_ROTOR_COUNT>
6

> <PUBCHEM_PHARMACOPHORE_FEATURES>
8
1 3 acceptor
1 4 acceptor
1 5 acceptor
1 6 donor
1 7 cation
1 7 donor
5 1 8 9 10 11 rings
6 14 16 17 18 19 20 rings

> <PUBCHEM_HEAVY_ATOM_COUNT>
22

> <PUBCHEM_ATOM_DEF_STEREO_COUNT>
0

> <PUBCHEM_ATOM_UDEF_STEREO_COUNT>
0

> <PUBCHEM_BOND_DEF_STEREO_COUNT>
0

> <PUBCHEM_BOND_UDEF_STEREO_COUNT>
0

> <PUBCHEM_ISOTOPIC_ATOM_COUNT>
0

> <PUBCHEM_COMPONENT_COUNT>
1

> <PUBCHEM_CACTVS_TAUTO_COUNT>
9

> <PUBCHEM_CONFORMER_ID>
002A0F7300000001

> <PUBCHEM_MMFF94_ENERGY>
69.6642

> <PUBCHEM_FEATURE_SELFOVERLAP>
40.596

> <PUBCHEM_SHAPE_FINGERPRINT>
10 15 18408605863669648938
10411042 1 18053379088313450927
10595046 47 18409727374789795290
106641 1 18412269458721815019
10968037 39 18408602573714215495
11315181 36 18336543905955575597
11524674 6 16702301264989522615
12107183 9 17617938037421612090
12236239 1 18260267421403728904
12516196 113 18113056030386167316
12596602 18 18113899321080702976
12616971 3 17749392593737388998
12788726 201 17489028145579826960
12916748 109 18341335509442625012
13073987 5 18335419007192863896
13167823 11 18410289207856963094
13533116 47 15625948578121293886
13668630 136 15285360604557177434
14251764 18 18343020012595759255
14251764 46 17530965791290721921
14341114 176 18412829053857300334
14849402 71 18263927816785225036
14933364 13 18343303673995543256
15196674 1 18410571799187521710
15461852 350 17561357392964497965
1813 80 17240772731101785310
21267235 1 18336270059510747502
23035841 295 18411699881080052018
23402539 116 18413101775347835647
23559900 14 18272361005869887912
23622692 118 18057595676402801615
300161 21 18411693279757392678
335352 9 18341326761148163949
34797466 226 17847068792061055748
350125 39 18411981364615373480
3545911 37 18412825776834183212
4073 2 18113904896623967026
4214541 1 18411416194137077228
4325135 7 18335422370595303380
4340502 62 16443061699859870058
4463277 17 18409728461269003572
5104073 3 18341891952024903371
542803 24 17131830958790137282
5758199 1 18333731356245582536
59682541 35 18335142045783676665
59755656 520 17168143455241827027
67856867 119 18335984285066565228
7226269 152 17846781767891568985

> <PUBCHEM_SHAPE_MULTIPOLES>
423.16
17.47
1.89
0.76
8.96
0.07
-0.02
-1.26
-3.74
-0.85
0.14
-0.34
0.08
-0.71

> <PUBCHEM_SHAPE_SELFOVERLAP>
893.156

> <PUBCHEM_SHAPE_VOLUME>
240.2

> <PUBCHEM_COORDINATE_TYPE>
2
5
10

$$$$
