454256
  -OEChem-02101610533D

 56 59  0     1  0  0  0  0  0999 V2000
    1.9872   -2.3918    0.1525 O   0  0  0  0  0  0  0  0  0  0  0  0
    3.4625    1.3881   -0.6007 O   0  0  0  0  0  0  0  0  0  0  0  0
   -2.4905   -0.8283   -0.4838 O   0  0  0  0  0  0  0  0  0  0  0  0
    1.0830    2.3570    0.1486 O   0  0  0  0  0  0  0  0  0  0  0  0
    0.6908    4.6068    0.2141 O   0  0  0  0  0  0  0  0  0  0  0  0
    3.9350   -0.9054    0.0140 C   0  0  1  0  0  0  0  0  0  0  0  0
    3.0485    0.3268    0.2557 C   0  0  2  0  0  0  0  0  0  0  0  0
    3.2969   -2.1335    0.6719 C   0  0  1  0  0  0  0  0  0  0  0  0
    1.5787    0.0108    0.0747 C   0  0  0  0  0  0  0  0  0  0  0  0
    1.1381   -1.3176    0.0283 C   0  0  0  0  0  0  0  0  0  0  0  0
    0.6062    1.0291    0.0062 C   0  0  0  0  0  0  0  0  0  0  0  0
   -0.2252   -1.6119   -0.1646 C   0  0  0  0  0  0  0  0  0  0  0  0
   -0.7650    0.7850   -0.1726 C   0  0  0  0  0  0  0  0  0  0  0  0
   -1.1642   -0.5655   -0.2624 C   0  0  0  0  0  0  0  0  0  0  0  0
    4.1892   -1.1679   -1.4815 C   0  0  0  0  0  0  0  0  0  0  0  0
    3.2520   -2.0755    2.1995 C   0  0  0  0  0  0  0  0  0  0  0  0
   -3.0178   -2.1438   -0.2342 C   0  0  0  0  0  0  0  0  0  0  0  0
   -1.6685    1.9604   -0.2447 C   0  0  0  0  0  0  0  0  0  0  0  0
   -0.6858   -2.9964   -0.2730 C   0  0  0  0  0  0  0  0  0  0  0  0
   -1.9961   -3.2436   -0.2941 C   0  0  0  0  0  0  0  0  0  0  0  0
   -3.1496    1.8109   -0.4521 C   0  0  0  0  0  0  0  0  0  0  0  0
   -4.0767   -2.3770   -1.3186 C   0  0  0  0  0  0  0  0  0  0  0  0
   -3.6893   -2.1226    1.1437 C   0  0  0  0  0  0  0  0  0  0  0  0
   -1.1620    3.1960   -0.1191 C   0  0  0  0  0  0  0  0  0  0  0  0
    0.2625    3.4652    0.0931 C   0  0  0  0  0  0  0  0  0  0  0  0
    4.8398    1.6811   -0.4283 C   0  0  0  0  0  0  0  0  0  0  0  0
   -3.8902    1.6951    0.8742 C   0  0  0  0  0  0  0  0  0  0  0  0
   -5.3895    1.5685    0.6532 C   0  0  0  0  0  0  0  0  0  0  0  0
    4.9169   -0.7472    0.4789 H   0  0  0  0  0  0  0  0  0  0  0  0
    3.1676    0.6597    1.2962 H   0  0  0  0  0  0  0  0  0  0  0  0
    3.8989   -3.0131    0.4104 H   0  0  0  0  0  0  0  0  0  0  0  0
    4.6184   -0.3374   -2.0419 H   0  0  0  0  0  0  0  0  0  0  0  0
    4.8781   -2.0132   -1.5949 H   0  0  0  0  0  0  0  0  0  0  0  0
    3.2633   -1.4410   -2.0001 H   0  0  0  0  0  0  0  0  0  0  0  0
    4.2512   -1.9192    2.6172 H   0  0  0  0  0  0  0  0  0  0  0  0
    2.5918   -1.2842    2.5676 H   0  0  0  0  0  0  0  0  0  0  0  0
    2.8533   -3.0155    2.5972 H   0  0  0  0  0  0  0  0  0  0  0  0
    0.0260   -3.8122   -0.3095 H   0  0  0  0  0  0  0  0  0  0  0  0
   -2.3392   -4.2739   -0.3366 H   0  0  0  0  0  0  0  0  0  0  0  0
   -3.4164    1.0306   -1.1680 H   0  0  0  0  0  0  0  0  0  0  0  0
   -3.5216    2.7192   -0.9515 H   0  0  0  0  0  0  0  0  0  0  0  0
   -4.5913   -3.3358   -1.1911 H   0  0  0  0  0  0  0  0  0  0  0  0
   -4.8288   -1.5792   -1.3082 H   0  0  0  0  0  0  0  0  0  0  0  0
   -3.6240   -2.3589   -2.3175 H   0  0  0  0  0  0  0  0  0  0  0  0
   -4.4856   -1.3717    1.1816 H   0  0  0  0  0  0  0  0  0  0  0  0
   -4.1291   -3.0937    1.3968 H   0  0  0  0  0  0  0  0  0  0  0  0
   -2.9720   -1.8558    1.9288 H   0  0  0  0  0  0  0  0  0  0  0  0
   -1.8047    4.0707   -0.1638 H   0  0  0  0  0  0  0  0  0  0  0  0
    5.5346    0.9408   -0.8242 H   0  0  0  0  0  0  0  0  0  0  0  0
    5.0654    1.8688    0.6274 H   0  0  0  0  0  0  0  0  0  0  0  0
    5.0399    2.6120   -0.9687 H   0  0  0  0  0  0  0  0  0  0  0  0
   -3.7007    2.5809    1.4932 H   0  0  0  0  0  0  0  0  0  0  0  0
   -3.5340    0.8322    1.4461 H   0  0  0  0  0  0  0  0  0  0  0  0
   -5.9073    1.4787    1.6133 H   0  0  0  0  0  0  0  0  0  0  0  0
   -5.7860    2.4475    0.1351 H   0  0  0  0  0  0  0  0  0  0  0  0
   -5.6257    0.6821    0.0560 H   0  0  0  0  0  0  0  0  0  0  0  0
  1  8  1  0  0  0  0
  1 10  1  0  0  0  0
  2  7  1  0  0  0  0
  2 26  1  0  0  0  0
  3 14  1  0  0  0  0
  3 17  1  0  0  0  0
  4 11  1  0  0  0  0
  4 25  1  0  0  0  0
  5 25  2  0  0  0  0
  6  7  1  0  0  0  0
  6  8  1  0  0  0  0
  6 15  1  0  0  0  0
  6 29  1  0  0  0  0
  7  9  1  0  0  0  0
  7 30  1  0  0  0  0
  8 16  1  0  0  0  0
  8 31  1  0  0  0  0
  9 10  2  0  0  0  0
  9 11  1  0  0  0  0
 10 12  1  0  0  0  0
 11 13  2  0  0  0  0
 12 14  2  0  0  0  0
 12 19  1  0  0  0  0
 13 14  1  0  0  0  0
 13 18  1  0  0  0  0
 15 32  1  0  0  0  0
 15 33  1  0  0  0  0
 15 34  1  0  0  0  0
 16 35  1  0  0  0  0
 16 36  1  0  0  0  0
 16 37  1  0  0  0  0
 17 20  1  0  0  0  0
 17 22  1  0  0  0  0
 17 23  1  0  0  0  0
 18 21  1  0  0  0  0
 18 24  2  0  0  0  0
 19 20  2  0  0  0  0
 19 38  1  0  0  0  0
 20 39  1  0  0  0  0
 21 27  1  0  0  0  0
 21 40  1  0  0  0  0
 21 41  1  0  0  0  0
 22 42  1  0  0  0  0
 22 43  1  0  0  0  0
 22 44  1  0  0  0  0
 23 45  1  0  0  0  0
 23 46  1  0  0  0  0
 23 47  1  0  0  0  0
 24 25  1  0  0  0  0
 24 48  1  0  0  0  0
 26 49  1  0  0  0  0
 26 50  1  0  0  0  0
 26 51  1  0  0  0  0
 27 28  1  0  0  0  0
 27 52  1  0  0  0  0
 27 53  1  0  0  0  0
 28 54  1  0  0  0  0
 28 55  1  0  0  0  0
 28 56  1  0  0  0  0
M  END
> <PUBCHEM_COMPOUND_CID>
454256

> <PUBCHEM_CONFORMER_RMSD>
0.8

> <PUBCHEM_CONFORMER_DIVERSEORDER>
1
2

> <PUBCHEM_MMFF94_PARTIAL_CHARGES>
24
1 -0.36
10 0.08
11 0.08
12 0.03
13 0.03
14 0.08
17 0.42
18 -0.17
19 -0.18
2 -0.56
20 -0.29
21 0.14
24 -0.14
25 0.71
26 0.28
3 -0.36
38 0.15
39 0.15
4 -0.23
48 0.15
5 -0.57
7 0.42
8 0.28
9 -0.14

> <PUBCHEM_EFFECTIVE_ROTOR_COUNT>
4.2

> <PUBCHEM_PHARMACOPHORE_FEATURES>
10
1 1 acceptor
1 2 acceptor
1 28 hydrophobe
1 3 acceptor
1 5 acceptor
3 17 22 23 hydrophobe
6 1 6 7 8 9 10 rings
6 3 12 14 17 19 20 rings
6 4 11 13 18 24 25 rings
6 9 10 11 12 13 14 rings

> <PUBCHEM_HEAVY_ATOM_COUNT>
28

> <PUBCHEM_ATOM_DEF_STEREO_COUNT>
3

> <PUBCHEM_ATOM_UDEF_STEREO_COUNT>
0

> <PUBCHEM_BOND_DEF_STEREO_COUNT>
0

> <PUBCHEM_BOND_UDEF_STEREO_COUNT>
0

> <PUBCHEM_ISOTOPIC_ATOM_COUNT>
0

> <PUBCHEM_COMPONENT_COUNT>
1

> <PUBCHEM_CACTVS_TAUTO_COUNT>
1

> <PUBCHEM_CONFORMER_ID>
0006EE7000000001

> <PUBCHEM_MMFF94_ENERGY>
104.7689

> <PUBCHEM_FEATURE_SELFOVERLAP>
50.825

> <PUBCHEM_SHAPE_FINGERPRINT>
10319926 262 18053350277788894298
10369192 42 16339738564967798136
10411042 1 18411130359653172686
10967382 1 18267019462138115693
1100329 8 18412548712921228609
11578080 2 17488725895993966171
12553582 1 18339636724922351757
12633257 1 18339073770610666059
12788726 201 18334294236762778170
13140716 1 18337105661892472386
13583140 156 16951966133389256499
138480 1 15601452227262453868
13911987 19 18192147097270195813
14178342 30 18196636596440915880
14790565 3 18196663895237555817
14955137 171 18266202594229825433
15042514 8 18337670789383899523
16752209 62 18412254026092586375
16945 1 18194673989316936055
19319366 153 17895202064844503194
19591789 44 18195530290163931365
20028762 73 18130783444130221031
20261772 1 18339367361985362235
20642791 35 18123750026153078095
20691752 17 17676482848297379238
20739085 24 18049466758820518633
20905425 154 18412825819947315316
21421861 104 18187076227110254314
2334 1 18410568496199207622
23558518 356 18048321342544950225
23559900 14 17908979151503709436
25147074 1 18336257990315256482
2748010 2 18341038670835114246
3091708 16 9640492126817791770
335352 9 18339362950790361190
34934 24 18409450284320832616
350125 39 17547859551001750791
352729 6 18195238923592552094
469060 322 17240766232605074767
5104073 3 18409162216933352650
6438718 38 17988636389909197631

> <PUBCHEM_SHAPE_MULTIPOLES>
546.88
8.59
4.9
1.09
0.06
2.5
0.27
-0.9
0.29
-1.83
0.1
0.38
-0.66
-1.26

> <PUBCHEM_SHAPE_SELFOVERLAP>
1185.428

> <PUBCHEM_SHAPE_VOLUME>
300

> <PUBCHEM_COORDINATE_TYPE>
2
5
10

$$$$
