356692
  -OEChem-02101610533D

 76 84  0     0  0  0  0  0  0999 V2000
    4.2843    2.4774    2.0836 O   0  0  0  0  0  0  0  0  0  0  0  0
   -4.4192    2.5986   -1.7444 O   0  0  0  0  0  0  0  0  0  0  0  0
   12.0024   -1.6460   -1.7758 O   0  0  0  0  0  0  0  0  0  0  0  0
  -12.4031   -2.0513   -0.1917 O   0  0  0  0  0  0  0  0  0  0  0  0
  -11.3900   -3.3091    1.4366 O   0  0  0  0  0  0  0  0  0  0  0  0
    3.1399    1.2228    0.4963 N   0  0  0  0  0  0  0  0  0  0  0  0
   -4.8199    0.7573   -0.3841 N   0  0  0  0  0  0  0  0  0  0  0  0
   10.3655   -2.1940   -0.2008 N   0  0  0  0  0  0  0  0  0  0  0  0
   -2.2070    2.5191    0.6010 N   0  0  0  0  0  0  0  0  0  0  0  0
    6.3452    1.5624   -0.2225 N   0  0  0  0  0  0  0  0  0  0  0  0
  -10.1115   -0.7089   -0.7473 N   0  0  0  0  0  0  0  0  0  0  0  0
   12.2608   -3.5231   -0.5302 N   0  0  0  0  0  0  0  0  0  0  0  0
    0.9554    1.1609   -0.2455 C   0  0  0  0  0  0  0  0  0  0  0  0
    1.7028    0.3082   -1.2304 C   0  0  0  0  0  0  0  0  0  0  0  0
    1.8263    1.7023    0.7127 C   0  0  0  0  0  0  0  0  0  0  0  0
    3.0878    0.2180   -0.5898 C   0  0  0  0  0  0  0  0  0  0  0  0
   -0.4090    1.4873   -0.2203 C   0  0  0  0  0  0  0  0  0  0  0  0
   -6.7015   -0.4518    0.1849 C   0  0  0  0  0  0  0  0  0  0  0  0
   -5.6448   -0.9493    1.1291 C   0  0  0  0  0  0  0  0  0  0  0  0
   -4.3859   -0.2742    0.5852 C   0  0  0  0  0  0  0  0  0  0  0  0
   -6.1965    0.5604   -0.6460 C   0  0  0  0  0  0  0  0  0  0  0  0
    8.3765   -1.2535    0.4931 C   0  0  0  0  0  0  0  0  0  0  0  0
   -0.8525    2.3535    0.7825 C   0  0  0  0  0  0  0  0  0  0  0  0
    7.3495   -0.2968    0.4898 C   0  0  0  0  0  0  0  0  0  0  0  0
    8.5111   -2.4837    1.3431 C   0  0  0  0  0  0  0  0  0  0  0  0
   -2.6306    1.7950   -0.4814 C   0  0  0  0  0  0  0  0  0  0  0  0
    9.4645   -1.1201   -0.3823 C   0  0  0  0  0  0  0  0  0  0  0  0
   -1.5391    1.1469   -1.0124 C   0  0  0  0  0  0  0  0  0  0  0  0
    9.8302   -3.0811    0.8527 C   0  0  0  0  0  0  0  0  0  0  0  0
    4.2850    1.6374    1.1850 C   0  0  0  0  0  0  0  0  0  0  0  0
   -8.0497   -0.8295    0.0934 C   0  0  0  0  0  0  0  0  0  0  0  0
    5.5437    1.0332    0.7536 C   0  0  0  0  0  0  0  0  0  0  0  0
    1.3666    2.5633    1.6992 C   0  0  0  0  0  0  0  0  0  0  0  0
    7.4567    0.7709   -0.4052 C   0  0  0  0  0  0  0  0  0  0  0  0
   -4.0175    1.7591   -0.9402 C   0  0  0  0  0  0  0  0  0  0  0  0
    0.0076    2.9019    1.7470 C   0  0  0  0  0  0  0  0  0  0  0  0
    6.1394   -0.1184    1.2142 C   0  0  0  0  0  0  0  0  0  0  0  0
   -8.8482   -0.1704   -0.8449 C   0  0  0  0  0  0  0  0  0  0  0  0
   -7.0066    1.2050   -1.5699 C   0  0  0  0  0  0  0  0  0  0  0  0
    9.5525   -0.0518   -1.2641 C   0  0  0  0  0  0  0  0  0  0  0  0
    8.5396    0.9164   -1.2865 C   0  0  0  0  0  0  0  0  0  0  0  0
   -8.3557    0.8429   -1.6824 C   0  0  0  0  0  0  0  0  0  0  0  0
   -8.8771   -1.7726    0.7618 C   0  0  0  0  0  0  0  0  0  0  0  0
  -10.1389   -1.6763    0.2215 C   0  0  0  0  0  0  0  0  0  0  0  0
   11.5583   -2.3876   -0.8977 C   0  0  0  0  0  0  0  0  0  0  0  0
  -11.3090   -2.4208    0.5652 C   0  0  0  0  0  0  0  0  0  0  0  0
  -13.6380   -2.7301    0.0641 C   0  0  0  0  0  0  0  0  0  0  0  0
    1.2478   -0.6784   -1.3550 H   0  0  0  0  0  0  0  0  0  0  0  0
    1.7512    0.8157   -2.1994 H   0  0  0  0  0  0  0  0  0  0  0  0
    3.2534   -0.7670   -0.1370 H   0  0  0  0  0  0  0  0  0  0  0  0
    3.8830    0.3953   -1.3207 H   0  0  0  0  0  0  0  0  0  0  0  0
   -5.8649   -0.6080    2.1459 H   0  0  0  0  0  0  0  0  0  0  0  0
   -5.5580   -2.0395    1.1185 H   0  0  0  0  0  0  0  0  0  0  0  0
   -3.7895    0.1730    1.3867 H   0  0  0  0  0  0  0  0  0  0  0  0
   -3.7524   -0.9887    0.0460 H   0  0  0  0  0  0  0  0  0  0  0  0
    8.5626   -2.2229    2.4048 H   0  0  0  0  0  0  0  0  0  0  0  0
    7.6760   -3.1708    1.1762 H   0  0  0  0  0  0  0  0  0  0  0  0
   10.5631   -3.1540    1.6644 H   0  0  0  0  0  0  0  0  0  0  0  0
    9.6844   -4.0831    0.4330 H   0  0  0  0  0  0  0  0  0  0  0  0
   -1.5513    0.4954   -1.8760 H   0  0  0  0  0  0  0  0  0  0  0  0
    2.0199    2.9840    2.4544 H   0  0  0  0  0  0  0  0  0  0  0  0
   -2.8003    3.0946    1.1829 H   0  0  0  0  0  0  0  0  0  0  0  0
   -0.3676    3.5717    2.5146 H   0  0  0  0  0  0  0  0  0  0  0  0
    5.7476   -0.7648    1.9881 H   0  0  0  0  0  0  0  0  0  0  0  0
    6.1509    2.4107   -0.7368 H   0  0  0  0  0  0  0  0  0  0  0  0
   -6.6343    1.9813   -2.2280 H   0  0  0  0  0  0  0  0  0  0  0  0
   10.3842    0.0685   -1.9483 H   0  0  0  0  0  0  0  0  0  0  0  0
    8.5947    1.7572   -1.9708 H   0  0  0  0  0  0  0  0  0  0  0  0
   -9.0011    1.3359   -2.4027 H   0  0  0  0  0  0  0  0  0  0  0  0
   -8.5765   -2.4484    1.5515 H   0  0  0  0  0  0  0  0  0  0  0  0
  -10.9032   -0.4256   -1.3083 H   0  0  0  0  0  0  0  0  0  0  0  0
   13.1416   -3.7512   -0.9795 H   0  0  0  0  0  0  0  0  0  0  0  0
   11.9422   -4.1677    0.1836 H   0  0  0  0  0  0  0  0  0  0  0  0
  -13.9563   -2.5565    1.0962 H   0  0  0  0  0  0  0  0  0  0  0  0
  -14.3956   -2.3246   -0.6116 H   0  0  0  0  0  0  0  0  0  0  0  0
  -13.5268   -3.8006   -0.1321 H   0  0  0  0  0  0  0  0  0  0  0  0
  1 30  2  0  0  0  0
  2 35  2  0  0  0  0
  3 45  2  0  0  0  0
  4 46  1  0  0  0  0
  4 47  1  0  0  0  0
  5 46  2  0  0  0  0
  6 15  1  0  0  0  0
  6 16  1  0  0  0  0
  6 30  1  0  0  0  0
  7 20  1  0  0  0  0
  7 21  1  0  0  0  0
  7 35  1  0  0  0  0
  8 27  1  0  0  0  0
  8 29  1  0  0  0  0
  8 45  1  0  0  0  0
  9 23  1  0  0  0  0
  9 26  1  0  0  0  0
  9 62  1  0  0  0  0
 10 32  1  0  0  0  0
 10 34  1  0  0  0  0
 10 65  1  0  0  0  0
 11 38  1  0  0  0  0
 11 44  1  0  0  0  0
 11 71  1  0  0  0  0
 12 45  1  0  0  0  0
 12 72  1  0  0  0  0
 12 73  1  0  0  0  0
 13 14  1  0  0  0  0
 13 15  2  0  0  0  0
 13 17  1  0  0  0  0
 14 16  1  0  0  0  0
 14 48  1  0  0  0  0
 14 49  1  0  0  0  0
 15 33  1  0  0  0  0
 16 50  1  0  0  0  0
 16 51  1  0  0  0  0
 17 23  2  0  0  0  0
 17 28  1  0  0  0  0
 18 19  1  0  0  0  0
 18 21  2  0  0  0  0
 18 31  1  0  0  0  0
 19 20  1  0  0  0  0
 19 52  1  0  0  0  0
 19 53  1  0  0  0  0
 20 54  1  0  0  0  0
 20 55  1  0  0  0  0
 21 39  1  0  0  0  0
 22 24  1  0  0  0  0
 22 25  1  0  0  0  0
 22 27  2  0  0  0  0
 23 36  1  0  0  0  0
 24 34  2  0  0  0  0
 24 37  1  0  0  0  0
 25 29  1  0  0  0  0
 25 56  1  0  0  0  0
 25 57  1  0  0  0  0
 26 28  2  0  0  0  0
 26 35  1  0  0  0  0
 27 40  1  0  0  0  0
 28 60  1  0  0  0  0
 29 58  1  0  0  0  0
 29 59  1  0  0  0  0
 30 32  1  0  0  0  0
 31 38  2  0  0  0  0
 31 43  1  0  0  0  0
 32 37  2  0  0  0  0
 33 36  2  0  0  0  0
 33 61  1  0  0  0  0
 34 41  1  0  0  0  0
 36 63  1  0  0  0  0
 37 64  1  0  0  0  0
 38 42  1  0  0  0  0
 39 42  2  0  0  0  0
 39 66  1  0  0  0  0
 40 41  2  0  0  0  0
 40 67  1  0  0  0  0
 41 68  1  0  0  0  0
 42 69  1  0  0  0  0
 43 44  2  0  0  0  0
 43 70  1  0  0  0  0
 44 46  1  0  0  0  0
 47 74  1  0  0  0  0
 47 75  1  0  0  0  0
 47 76  1  0  0  0  0
M  END
> <PUBCHEM_COMPOUND_CID>
356692

> <PUBCHEM_CONFORMER_RMSD>
1.2

> <PUBCHEM_CONFORMER_DIVERSEORDER>
1
109
48
31
102
116
80
100
10
62
74
124
121
40
111
64
34
106
11
113
33
118
88
24
97
119
72
9
47
77
96
70
7
69
93
25
56
2
26
13
39
59
49
12
54
43
78
98
123
76
55
32
86
8
66
114
112
107
71
6
120
94
14
27
45
99
58
42
57
122
117
105
75
41
23
108
87
50
115
60
19
103
17
79
83
91
82
38
36
53
16
101
85
90
67
46
73
51
28
29
35
61
84
95
22
104
89
92
15
63
3
110
68
20
37
4
30
44
65
21
18
5
81
52

> <PUBCHEM_MMFF94_PARTIAL_CHARGES>
58
1 -0.57
10 0.03
11 0.03
12 -0.8
13 -0.14
14 0.14
15 0.12
16 0.3
18 -0.14
19 0.14
2 -0.57
20 0.3
21 0.12
22 -0.14
23 -0.15
25 0.14
26 -0.24
27 0.12
28 -0.15
29 0.3
3 -0.57
30 0.71
32 -0.24
33 -0.15
34 -0.15
35 0.71
36 -0.15
37 -0.15
38 -0.15
39 -0.15
4 -0.43
40 -0.15
41 -0.15
42 -0.15
43 -0.15
44 -0.24
45 0.69
46 0.81
47 0.28
5 -0.57
6 -0.48
60 0.15
61 0.15
62 0.27
63 0.15
64 0.15
65 0.27
66 0.15
67 0.15
68 0.15
69 0.15
7 -0.48
70 0.15
71 0.27
72 0.37
73 0.37
8 -0.48
9 0.03

> <PUBCHEM_EFFECTIVE_ROTOR_COUNT>
8.8

> <PUBCHEM_PHARMACOPHORE_FEATURES>
20
1 1 acceptor
1 10 cation
1 10 donor
1 11 cation
1 11 donor
1 12 donor
1 2 acceptor
1 3 acceptor
1 5 acceptor
1 9 cation
1 9 donor
5 10 24 32 34 37 rings
5 11 31 38 43 44 rings
5 6 13 14 15 16 rings
5 7 18 19 20 21 rings
5 8 22 25 27 29 rings
5 9 17 23 26 28 rings
6 13 15 17 23 33 36 rings
6 18 21 31 38 39 42 rings
6 22 24 27 34 40 41 rings

> <PUBCHEM_HEAVY_ATOM_COUNT>
47

> <PUBCHEM_ATOM_DEF_STEREO_COUNT>
0

> <PUBCHEM_ATOM_UDEF_STEREO_COUNT>
0

> <PUBCHEM_BOND_DEF_STEREO_COUNT>
0

> <PUBCHEM_BOND_UDEF_STEREO_COUNT>
0

> <PUBCHEM_ISOTOPIC_ATOM_COUNT>
0

> <PUBCHEM_COMPONENT_COUNT>
1

> <PUBCHEM_CACTVS_TAUTO_COUNT>
16

> <PUBCHEM_CONFORMER_ID>
0005715400000001

> <PUBCHEM_MMFF94_ENERGY>
139.9637

> <PUBCHEM_FEATURE_SELFOVERLAP>
102.02

> <PUBCHEM_SHAPE_FINGERPRINT>
10029044 110 10809336724838024375
10168742 298 18113903784037422519
10533779 47 14979965740275092140
11411753 29 18342730810947614208
11421887 45 12396884237388880942
11456790 92 15123502627872914402
11463208 3 18411420588269052830
11607047 74 17824267231013996276
12013929 94 18408041801842034582
12539745 222 18342459228066186433
12559415 90 10159700183671592397
13008946 119 11959730465092943517
13553643 46 12031781453386780738
14359421 15 18410855426681683722
14395042 24 11959727184017686218
14965480 1 18335420201421743403
15065858 18 18408878560356179325
15247644 1 18412546513360338335
15274700 232 17895480341157898819
15461852 350 17748822999660120973
15890870 6 18260266356590236027
16728433 110 18270958050392274168
1754911 235 16081091459520580500
19302320 297 10735866288887932098
20105231 36 18411138043211716067
2026 5 18411132511320634891
20982279 24 18412832390767295523
21362267 20 18057317500399662319
21362267 313 11240008841343660908
21792961 116 18272082756224173733
232437 2 18335420184303877815
23569917 315 18198627636823271086
23576562 1 15647350691613650852
25269216 80 17676761020845601413
2851757 41 18342176657075703754
44389302 135 17632859746368036783
4516262 110 11025787696305859737
45377200 153 17967252031009704475
54039377 194 18411699880858688013

> <PUBCHEM_SHAPE_MULTIPOLES>
903.02
55.85
3.59
1.54
21.84
1.48
0.05
70.89
-8.83
-1.03
1.07
-0.83
-0.55
3.76

> <PUBCHEM_SHAPE_SELFOVERLAP>
2067.608

> <PUBCHEM_SHAPE_VOLUME>
475

> <PUBCHEM_COORDINATE_TYPE>
2
5
10

$$$$
