2230904
  -OEChem-02101610513D

 35 37  0     0  0  0  0  0  0999 V2000
    7.3352   -0.1154    1.5617 I   0  0  0  0  0  0  0  0  0  0  0  0
   -1.6543    3.2513    0.0698 S   0  0  0  0  0  0  0  0  0  0  0  0
    4.4238   -0.6672    0.8548 O   0  0  0  0  0  0  0  0  0  0  0  0
   -0.4484   -1.7513    0.0678 O   0  0  0  0  0  0  0  0  0  0  0  0
   -6.4211   -0.8803    0.4281 O   0  0  0  0  0  0  0  0  0  0  0  0
    2.9065    1.5499   -0.4869 O   0  0  0  0  0  0  0  0  0  0  0  0
   -1.0410    0.5239    0.0197 N   0  0  0  0  0  0  0  0  0  0  0  0
    0.6931    2.1308   -0.2701 N   0  0  0  0  0  0  0  0  0  0  0  0
   -2.4337    0.1611    0.1256 C   0  0  0  0  0  0  0  0  0  0  0  0
    1.2972   -0.1728   -0.1271 C   0  0  0  0  0  0  0  0  0  0  0  0
   -0.1324   -0.5623    0.0113 C   0  0  0  0  0  0  0  0  0  0  0  0
   -0.6656    1.8898   -0.0809 C   0  0  0  0  0  0  0  0  0  0  0  0
    1.7357    1.2244   -0.3167 C   0  0  0  0  0  0  0  0  0  0  0  0
   -3.0121    0.0457    1.3795 C   0  0  0  0  0  0  0  0  0  0  0  0
   -3.1656   -0.0656   -1.0290 C   0  0  0  0  0  0  0  0  0  0  0  0
    2.2361   -1.1299   -0.0895 C   0  0  0  0  0  0  0  0  0  0  0  0
   -4.3580   -0.3061    1.4817 C   0  0  0  0  0  0  0  0  0  0  0  0
   -4.5116   -0.4172   -0.9269 C   0  0  0  0  0  0  0  0  0  0  0  0
   -5.1078   -0.5377    0.3285 C   0  0  0  0  0  0  0  0  0  0  0  0
    3.6849   -0.9154   -0.2226 C   0  0  0  0  0  0  0  0  0  0  0  0
    4.3717   -0.9450   -1.3751 C   0  0  0  0  0  0  0  0  0  0  0  0
    5.7083   -0.6848   -0.9894 C   0  0  0  0  0  0  0  0  0  0  0  0
    5.6874   -0.5232    0.3765 C   0  0  0  0  0  0  0  0  0  0  0  0
   -7.1285   -1.1027   -0.7909 C   0  0  0  0  0  0  0  0  0  0  0  0
   -2.4346    0.2228    2.2825 H   0  0  0  0  0  0  0  0  0  0  0  0
   -2.7072    0.0254   -2.0098 H   0  0  0  0  0  0  0  0  0  0  0  0
    0.9567    3.1082   -0.3628 H   0  0  0  0  0  0  0  0  0  0  0  0
    1.9578   -2.1719    0.0480 H   0  0  0  0  0  0  0  0  0  0  0  0
   -4.8168   -0.3984    2.4623 H   0  0  0  0  0  0  0  0  0  0  0  0
   -5.0348   -0.5826   -1.8624 H   0  0  0  0  0  0  0  0  0  0  0  0
    4.0001   -1.1245   -2.3739 H   0  0  0  0  0  0  0  0  0  0  0  0
    6.5717   -0.6248   -1.6375 H   0  0  0  0  0  0  0  0  0  0  0  0
   -7.1787   -0.1929   -1.3987 H   0  0  0  0  0  0  0  0  0  0  0  0
   -8.1574   -1.3659   -0.5242 H   0  0  0  0  0  0  0  0  0  0  0  0
   -6.7154   -1.9512   -1.3469 H   0  0  0  0  0  0  0  0  0  0  0  0
  1 23  1  0  0  0  0
  2 12  2  0  0  0  0
  3 20  1  0  0  0  0
  3 23  1  0  0  0  0
  4 11  2  0  0  0  0
  5 19  1  0  0  0  0
  5 24  1  0  0  0  0
  6 13  2  0  0  0  0
  7  9  1  0  0  0  0
  7 11  1  0  0  0  0
  7 12  1  0  0  0  0
  8 12  1  0  0  0  0
  8 13  1  0  0  0  0
  8 27  1  0  0  0  0
  9 14  2  0  0  0  0
  9 15  1  0  0  0  0
 10 11  1  0  0  0  0
 10 13  1  0  0  0  0
 10 16  2  0  0  0  0
 14 17  1  0  0  0  0
 14 25  1  0  0  0  0
 15 18  2  0  0  0  0
 15 26  1  0  0  0  0
 16 20  1  0  0  0  0
 16 28  1  0  0  0  0
 17 19  2  0  0  0  0
 17 29  1  0  0  0  0
 18 19  1  0  0  0  0
 18 30  1  0  0  0  0
 20 21  2  0  0  0  0
 21 22  1  0  0  0  0
 21 31  1  0  0  0  0
 22 23  2  0  0  0  0
 22 32  1  0  0  0  0
 24 33  1  0  0  0  0
 24 34  1  0  0  0  0
 24 35  1  0  0  0  0
M  END
> <PUBCHEM_COMPOUND_CID>
2230904

> <PUBCHEM_CONFORMER_RMSD>
0.6

> <PUBCHEM_CONFORMER_DIVERSEORDER>
1
7
3
4
5
6
2

> <PUBCHEM_MMFF94_PARTIAL_CHARGES>
32
1 -0.03
10 0.03
11 0.62
12 0.5
13 0.62
14 -0.15
15 -0.15
16 -0.11
17 -0.15
18 -0.15
19 0.08
2 -0.38
20 0.09
21 -0.15
22 -0.15
23 0.17
24 0.28
25 0.15
26 0.15
27 0.37
28 0.15
29 0.15
3 -0.28
30 0.15
31 0.15
32 0.15
4 -0.57
5 -0.36
6 -0.57
7 -0.24
8 -0.49
9 0.12

> <PUBCHEM_EFFECTIVE_ROTOR_COUNT>
3.4

> <PUBCHEM_PHARMACOPHORE_FEATURES>
11
1 1 hydrophobe
1 10 anion
1 2 acceptor
1 3 acceptor
1 4 acceptor
1 5 acceptor
1 6 acceptor
1 8 donor
5 3 20 21 22 23 rings
6 7 8 10 11 12 13 rings
6 9 14 15 17 18 19 rings

> <PUBCHEM_HEAVY_ATOM_COUNT>
24

> <PUBCHEM_ATOM_DEF_STEREO_COUNT>
0

> <PUBCHEM_ATOM_UDEF_STEREO_COUNT>
0

> <PUBCHEM_BOND_DEF_STEREO_COUNT>
1

> <PUBCHEM_BOND_UDEF_STEREO_COUNT>
0

> <PUBCHEM_ISOTOPIC_ATOM_COUNT>
0

> <PUBCHEM_COMPONENT_COUNT>
1

> <PUBCHEM_CACTVS_TAUTO_COUNT>
3

> <PUBCHEM_CONFORMER_ID>
00220A7800000001

> <PUBCHEM_MMFF94_ENERGY>
100.4012

> <PUBCHEM_FEATURE_SELFOVERLAP>
55.823

> <PUBCHEM_SHAPE_FINGERPRINT>
10 15 18410004469311438216
106641 1 17418088853767807722
11315181 36 16877950433627739181
11719270 70 17240476993029697922
11796584 16 16226051097716104522
11963148 33 18407757049437337266
12236239 1 17846503655963577001
12516196 113 18343302569608770952
12596602 18 16702308922852972170
12623949 98 17273993354233702246
13073987 5 18338792300640968994
13140716 1 18265337381589688418
13177829 20 16559028319979085090
13685833 64 18408045130336207003
13782708 43 17386861680452728355
13862211 1 18408886226323994482
13914758 101 15213291981248928774
14251764 18 18060136570121879418
14849402 71 17059767948951768896
14933364 13 15554729980063981114
15183329 4 14056995001788420896
15849732 13 17846495942186580607
16087824 20 18194120717334302405
17492 89 18121497943368293778
1813 80 18272104772204972981
18222031 100 18412266133573043675
19489759 90 16443063885280746391
200 152 18407759222858164861
20028762 73 18202003248145188583
21236236 1 18338238145984335376
21267235 1 18411708681156746846
21641784 216 17968959499490296084
21792934 111 18411973668076300809
22224240 67 17775280578055532054
23198884 109 14706927337252431183
23402539 116 18411982429640162333
23559900 14 16298392417541323925
23569914 2 15693173715449298720
23569943 247 17771081392725831406
249057 3 18411697713081722167
2747138 104 18412834598654935082
283562 15 18337674096751128905
3004659 81 18113620105325465300
3009799 131 18186796976609883413
314173 85 18341899571260046976
34797466 226 15626227948732548016
350125 39 18411142411473784488
4073 2 11891348555801263440
4325135 7 16774074098616665162
4340502 62 14764353734022267461
5104073 3 18266468778600866442
542803 24 13973962091361781002
57527295 17 17970601066962432831
59682541 35 18271519892949917506
59682541 52 13334729099468865970
5969126 39 18411129217550341021
59755656 215 18334295349111763295
59755656 520 8862940567966906201
7495541 125 17458352969835219806
8863177 126 17824559684390637371
9663363 56 18409441488190679109

> <PUBCHEM_SHAPE_MULTIPOLES>
476.25
17.36
1.99
1.24
4.64
2.05
0.26
-7.77
3.27
-0.91
-0.26
0.63
-0.18
0.18

> <PUBCHEM_SHAPE_SELFOVERLAP>
1008.37

> <PUBCHEM_SHAPE_VOLUME>
273.9

> <PUBCHEM_COORDINATE_TYPE>
2
5
10

$$$$
