5347292
  -OEChem-02101610513D

 31 33  0     0  0  0  0  0  0999 V2000
    6.8823    0.1598    1.5490 I   0  0  0  0  0  0  0  0  0  0  0  0
   -2.3041    3.0334    0.2359 S   0  0  0  0  0  0  0  0  0  0  0  0
   -3.1067   -0.1828   -2.1198 F   0  0  0  0  0  0  0  0  0  0  0  0
    3.9973   -0.5448    0.8701 O   0  0  0  0  0  0  0  0  0  0  0  0
   -0.8159   -1.8913    0.1271 O   0  0  0  0  0  0  0  0  0  0  0  0
    2.3378    1.6052   -0.4111 O   0  0  0  0  0  0  0  0  0  0  0  0
   -1.5375    0.3467    0.1281 N   0  0  0  0  0  0  0  0  0  0  0  0
    0.0982    2.0549   -0.1549 N   0  0  0  0  0  0  0  0  0  0  0  0
    0.8343   -0.2126   -0.0618 C   0  0  0  0  0  0  0  0  0  0  0  0
   -2.9057   -0.0967    0.2455 C   0  0  0  0  0  0  0  0  0  0  0  0
   -0.5688   -0.6854    0.0881 C   0  0  0  0  0  0  0  0  0  0  0  0
   -1.2418    1.7334    0.0476 C   0  0  0  0  0  0  0  0  0  0  0  0
    1.1898    1.2104   -0.2315 C   0  0  0  0  0  0  0  0  0  0  0  0
    1.8265   -1.1151   -0.0538 C   0  0  0  0  0  0  0  0  0  0  0  0
   -3.6423   -0.3461   -0.9015 C   0  0  0  0  0  0  0  0  0  0  0  0
   -3.4563   -0.2660    1.5060 C   0  0  0  0  0  0  0  0  0  0  0  0
    3.2587   -0.8159   -0.2019 C   0  0  0  0  0  0  0  0  0  0  0  0
   -4.9642   -0.7764   -0.7848 C   0  0  0  0  0  0  0  0  0  0  0  0
   -4.7781   -0.6959    1.6225 C   0  0  0  0  0  0  0  0  0  0  0  0
   -5.5320   -0.9510    0.4771 C   0  0  0  0  0  0  0  0  0  0  0  0
    3.9298   -0.7862   -1.3635 C   0  0  0  0  0  0  0  0  0  0  0  0
    5.2548   -0.4569   -0.9906 C   0  0  0  0  0  0  0  0  0  0  0  0
    5.2439   -0.3205    0.3781 C   0  0  0  0  0  0  0  0  0  0  0  0
    1.6098   -2.1735    0.0682 H   0  0  0  0  0  0  0  0  0  0  0  0
    0.3046    3.0472   -0.2331 H   0  0  0  0  0  0  0  0  0  0  0  0
   -2.8754   -0.0712    2.4033 H   0  0  0  0  0  0  0  0  0  0  0  0
   -5.5509   -0.9752   -1.6767 H   0  0  0  0  0  0  0  0  0  0  0  0
   -5.2202   -0.8323    2.6051 H   0  0  0  0  0  0  0  0  0  0  0  0
   -6.5612   -1.2859    0.5679 H   0  0  0  0  0  0  0  0  0  0  0  0
    3.5550   -0.9691   -2.3606 H   0  0  0  0  0  0  0  0  0  0  0  0
    6.1042   -0.3364   -1.6488 H   0  0  0  0  0  0  0  0  0  0  0  0
  1 23  1  0  0  0  0
  2 12  2  0  0  0  0
  3 15  1  0  0  0  0
  4 17  1  0  0  0  0
  4 23  1  0  0  0  0
  5 11  2  0  0  0  0
  6 13  2  0  0  0  0
  7 10  1  0  0  0  0
  7 11  1  0  0  0  0
  7 12  1  0  0  0  0
  8 12  1  0  0  0  0
  8 13  1  0  0  0  0
  8 25  1  0  0  0  0
  9 11  1  0  0  0  0
  9 13  1  0  0  0  0
  9 14  2  0  0  0  0
 10 15  1  0  0  0  0
 10 16  2  0  0  0  0
 14 17  1  0  0  0  0
 14 24  1  0  0  0  0
 15 18  2  0  0  0  0
 16 19  1  0  0  0  0
 16 26  1  0  0  0  0
 17 21  2  0  0  0  0
 18 20  1  0  0  0  0
 18 27  1  0  0  0  0
 19 20  2  0  0  0  0
 19 28  1  0  0  0  0
 20 29  1  0  0  0  0
 21 22  1  0  0  0  0
 21 30  1  0  0  0  0
 22 23  2  0  0  0  0
 22 31  1  0  0  0  0
M  END
> <PUBCHEM_COMPOUND_CID>
5347292

> <PUBCHEM_CONFORMER_RMSD>
0.6

> <PUBCHEM_CONFORMER_DIVERSEORDER>
1
4
2
3

> <PUBCHEM_MMFF94_PARTIAL_CHARGES>
31
1 -0.03
10 0.12
11 0.62
12 0.5
13 0.62
14 -0.11
15 0.19
16 -0.15
17 0.09
18 -0.15
19 -0.15
2 -0.38
20 -0.15
21 -0.15
22 -0.15
23 0.17
24 0.15
25 0.37
26 0.15
27 0.15
28 0.15
29 0.15
3 -0.19
30 0.15
31 0.15
4 -0.28
5 -0.57
6 -0.57
7 -0.24
8 -0.49
9 0.03

> <PUBCHEM_EFFECTIVE_ROTOR_COUNT>
2.4

> <PUBCHEM_PHARMACOPHORE_FEATURES>
10
1 1 hydrophobe
1 2 acceptor
1 4 acceptor
1 5 acceptor
1 6 acceptor
1 8 donor
1 9 anion
5 4 17 21 22 23 rings
6 10 15 16 18 19 20 rings
6 7 8 9 11 12 13 rings

> <PUBCHEM_HEAVY_ATOM_COUNT>
23

> <PUBCHEM_ATOM_DEF_STEREO_COUNT>
0

> <PUBCHEM_ATOM_UDEF_STEREO_COUNT>
0

> <PUBCHEM_BOND_DEF_STEREO_COUNT>
1

> <PUBCHEM_BOND_UDEF_STEREO_COUNT>
0

> <PUBCHEM_ISOTOPIC_ATOM_COUNT>
0

> <PUBCHEM_COMPONENT_COUNT>
1

> <PUBCHEM_CACTVS_TAUTO_COUNT>
3

> <PUBCHEM_CONFORMER_ID>
005197DC00000001

> <PUBCHEM_MMFF94_ENERGY>
86.0991

> <PUBCHEM_FEATURE_SELFOVERLAP>
50.747

> <PUBCHEM_SHAPE_FINGERPRINT>
10 15 18337945784351953600
10670039 82 18189071819592980062
11315181 36 17530969077157046192
11552529 35 15553862490731864455
11796584 16 16515401867653017562
12107183 9 15549982116793275826
12166972 35 17240204339846643588
12236239 1 17775291586425567539
12516196 113 18273215317751178208
12553582 1 18411984658580651798
13073987 5 18337950087518761274
13140716 1 18265900348427651298
13862211 1 18408603673205095010
14840074 17 18131072653329733750
14849402 71 17059201722223345328
15183329 4 11169905066593684776
17349148 13 18260834791068343388
1813 80 18272386260150955533
19489759 90 15791728594306882591
200 152 18334575741893287175
20028762 73 18201162169343018991
20602899 9 15502386629364631145
21236236 1 18339081479987402025
21267235 1 18409460176094693390
23175994 123 18260835934094373925
23198884 109 13695585542285760698
23402539 116 18413107247315460159
23536379 177 15357694189009465114
23557571 272 18129956580745972436
23559900 14 15864358011916768013
23569914 2 15550186638972015698
23569943 247 17771361785318042478
26918003 58 18113339721576350971
283562 15 18339360764963061873
3004659 81 16298383548924624258
3009799 131 18261381244173804205
314173 85 18343305859511573657
34797466 226 17846509162465598428
350125 39 18410863148167854537
4325135 7 16773791532723464466
5104073 3 18268429023824746058
53917941 68 17971461910951832749
542803 24 14189574131077324418
57527295 17 18043783469980306887
59682541 35 18270959159131049192
7495541 125 17530971323182264510
8863177 126 17679883758264281995

> <PUBCHEM_SHAPE_MULTIPOLES>
454.27
14.42
1.92
1.38
12.56
1.75
0.12
-3.74
4.2
-1.31
-0.1
0.05
-0.24
0.54

> <PUBCHEM_SHAPE_SELFOVERLAP>
967.669

> <PUBCHEM_SHAPE_VOLUME>
259

> <PUBCHEM_COORDINATE_TYPE>
2
5
10

$$$$
