1338645
  -OEChem-02101610513D

 62 66  0     0  0  0  0  0  0999 V2000
    8.1965   -1.8869   -0.8980 O   0  0  0  0  0  0  0  0  0  0  0  0
   -2.8692   -1.8516    1.2982 O   0  0  0  0  0  0  0  0  0  0  0  0
    3.3530   -0.4922   -0.3175 N   0  0  0  0  0  0  0  0  0  0  0  0
    6.2390   -0.7160   -0.3960 N   0  0  0  0  0  0  0  0  0  0  0  0
   -2.2447   -0.0758   -0.1105 N   0  0  0  0  0  0  0  0  0  0  0  0
    4.1912    0.6947   -0.5067 C   0  0  0  0  0  0  0  0  0  0  0  0
    4.0144   -1.7949   -0.2017 C   0  0  0  0  0  0  0  0  0  0  0  0
    5.5726    0.4864    0.1141 C   0  0  0  0  0  0  0  0  0  0  0  0
    5.3703   -1.7741   -0.9033 C   0  0  0  0  0  0  0  0  0  0  0  0
    1.9650   -0.3895   -0.2670 C   0  0  0  0  0  0  0  0  0  0  0  0
    7.6253   -0.8837   -0.4724 C   0  0  0  0  0  0  0  0  0  0  0  0
    1.1867   -1.2937    0.4938 C   0  0  0  0  0  0  0  0  0  0  0  0
    1.2749    0.6236   -0.9737 C   0  0  0  0  0  0  0  0  0  0  0  0
    8.4845    0.2160   -0.0051 C   0  0  0  0  0  0  0  0  0  0  0  0
   -0.2035   -1.1904    0.5450 C   0  0  0  0  0  0  0  0  0  0  0  0
   -0.1152    0.7268   -0.9222 C   0  0  0  0  0  0  0  0  0  0  0  0
   -0.8544   -0.1802   -0.1630 C   0  0  0  0  0  0  0  0  0  0  0  0
    8.8921    0.2580    1.3250 C   0  0  0  0  0  0  0  0  0  0  0  0
    8.8841    1.2075   -0.8964 C   0  0  0  0  0  0  0  0  0  0  0  0
    9.7061    1.3006    1.7678 C   0  0  0  0  0  0  0  0  0  0  0  0
    9.6983    2.2500   -0.4537 C   0  0  0  0  0  0  0  0  0  0  0  0
   -3.1449   -0.8878    0.5919 C   0  0  0  0  0  0  0  0  0  0  0  0
   10.1093    2.2965    0.8784 C   0  0  0  0  0  0  0  0  0  0  0  0
   -4.5804   -0.5392    0.4264 C   0  0  0  0  0  0  0  0  0  0  0  0
   -7.2432    0.1086    0.1200 C   0  0  0  0  0  0  0  0  0  0  0  0
   -5.4628   -0.8556    1.4379 C   0  0  0  0  0  0  0  0  0  0  0  0
   -4.9829    0.0899   -0.7329 C   0  0  0  0  0  0  0  0  0  0  0  0
   -6.8098   -0.5280    1.2828 C   0  0  0  0  0  0  0  0  0  0  0  0
   -6.3297    0.4176   -0.8880 C   0  0  0  0  0  0  0  0  0  0  0  0
   -8.6402    0.4490   -0.0408 C   0  0  0  0  0  0  0  0  0  0  0  0
   -9.5167   -0.4617   -0.6308 C   0  0  0  0  0  0  0  0  0  0  0  0
   -9.1107    1.6879    0.3945 C   0  0  0  0  0  0  0  0  0  0  0  0
  -10.8636   -0.1335   -0.7856 C   0  0  0  0  0  0  0  0  0  0  0  0
  -10.4575    2.0161    0.2399 C   0  0  0  0  0  0  0  0  0  0  0  0
  -11.3339    1.1053   -0.3503 C   0  0  0  0  0  0  0  0  0  0  0  0
    3.7373    1.5739   -0.0334 H   0  0  0  0  0  0  0  0  0  0  0  0
    4.2904    0.8997   -1.5797 H   0  0  0  0  0  0  0  0  0  0  0  0
    3.4063   -2.5837   -0.6612 H   0  0  0  0  0  0  0  0  0  0  0  0
    4.1461   -2.0404    0.8591 H   0  0  0  0  0  0  0  0  0  0  0  0
    6.1868    1.3731   -0.0616 H   0  0  0  0  0  0  0  0  0  0  0  0
    5.4841    0.3568    1.1998 H   0  0  0  0  0  0  0  0  0  0  0  0
    5.8658   -2.7451   -0.7960 H   0  0  0  0  0  0  0  0  0  0  0  0
    5.2422   -1.5909   -1.9774 H   0  0  0  0  0  0  0  0  0  0  0  0
    1.6633   -2.0853    1.0680 H   0  0  0  0  0  0  0  0  0  0  0  0
    1.8182    1.3400   -1.5860 H   0  0  0  0  0  0  0  0  0  0  0  0
   -0.7041   -1.9273    1.1569 H   0  0  0  0  0  0  0  0  0  0  0  0
   -0.6094    1.5175   -1.4812 H   0  0  0  0  0  0  0  0  0  0  0  0
    8.5826   -0.5130    2.0256 H   0  0  0  0  0  0  0  0  0  0  0  0
    8.5686    1.1802   -1.9360 H   0  0  0  0  0  0  0  0  0  0  0  0
   -2.6141    0.7199   -0.6232 H   0  0  0  0  0  0  0  0  0  0  0  0
   10.0258    1.3370    2.8051 H   0  0  0  0  0  0  0  0  0  0  0  0
   10.0120    3.0256   -1.1461 H   0  0  0  0  0  0  0  0  0  0  0  0
   10.7430    3.1083    1.2231 H   0  0  0  0  0  0  0  0  0  0  0  0
   -5.1409   -1.3454    2.3520 H   0  0  0  0  0  0  0  0  0  0  0  0
   -4.3157    0.3115   -1.5591 H   0  0  0  0  0  0  0  0  0  0  0  0
   -7.5085   -0.7747    2.0788 H   0  0  0  0  0  0  0  0  0  0  0  0
   -6.6530    0.9058   -1.8045 H   0  0  0  0  0  0  0  0  0  0  0  0
   -9.1666   -1.4318   -0.9757 H   0  0  0  0  0  0  0  0  0  0  0  0
   -8.4410    2.4095    0.8566 H   0  0  0  0  0  0  0  0  0  0  0  0
  -11.5461   -0.8425   -1.2450 H   0  0  0  0  0  0  0  0  0  0  0  0
  -10.8240    2.9807    0.5788 H   0  0  0  0  0  0  0  0  0  0  0  0
  -12.3826    1.3609   -0.4707 H   0  0  0  0  0  0  0  0  0  0  0  0
  1 11  2  0  0  0  0
  2 22  2  0  0  0  0
  3  6  1  0  0  0  0
  3  7  1  0  0  0  0
  3 10  1  0  0  0  0
  4  8  1  0  0  0  0
  4  9  1  0  0  0  0
  4 11  1  0  0  0  0
  5 17  1  0  0  0  0
  5 22  1  0  0  0  0
  5 50  1  0  0  0  0
  6  8  1  0  0  0  0
  6 36  1  0  0  0  0
  6 37  1  0  0  0  0
  7  9  1  0  0  0  0
  7 38  1  0  0  0  0
  7 39  1  0  0  0  0
  8 40  1  0  0  0  0
  8 41  1  0  0  0  0
  9 42  1  0  0  0  0
  9 43  1  0  0  0  0
 10 12  2  0  0  0  0
 10 13  1  0  0  0  0
 11 14  1  0  0  0  0
 12 15  1  0  0  0  0
 12 44  1  0  0  0  0
 13 16  2  0  0  0  0
 13 45  1  0  0  0  0
 14 18  2  0  0  0  0
 14 19  1  0  0  0  0
 15 17  2  0  0  0  0
 15 46  1  0  0  0  0
 16 17  1  0  0  0  0
 16 47  1  0  0  0  0
 18 20  1  0  0  0  0
 18 48  1  0  0  0  0
 19 21  2  0  0  0  0
 19 49  1  0  0  0  0
 20 23  2  0  0  0  0
 20 51  1  0  0  0  0
 21 23  1  0  0  0  0
 21 52  1  0  0  0  0
 22 24  1  0  0  0  0
 23 53  1  0  0  0  0
 24 26  2  0  0  0  0
 24 27  1  0  0  0  0
 25 28  2  0  0  0  0
 25 29  1  0  0  0  0
 25 30  1  0  0  0  0
 26 28  1  0  0  0  0
 26 54  1  0  0  0  0
 27 29  2  0  0  0  0
 27 55  1  0  0  0  0
 28 56  1  0  0  0  0
 29 57  1  0  0  0  0
 30 31  2  0  0  0  0
 30 32  1  0  0  0  0
 31 33  1  0  0  0  0
 31 58  1  0  0  0  0
 32 34  2  0  0  0  0
 32 59  1  0  0  0  0
 33 35  2  0  0  0  0
 33 60  1  0  0  0  0
 34 35  1  0  0  0  0
 34 61  1  0  0  0  0
 35 62  1  0  0  0  0
M  END
> <PUBCHEM_COMPOUND_CID>
1338645

> <PUBCHEM_CONFORMER_RMSD>
1

> <PUBCHEM_CONFORMER_DIVERSEORDER>
1
5
3
6
2
4
7

> <PUBCHEM_MMFF94_PARTIAL_CHARGES>
52
1 -0.57
10 0.1
11 0.54
12 -0.15
13 -0.15
14 0.09
15 -0.15
16 -0.15
17 0.12
18 -0.15
19 -0.15
2 -0.57
20 -0.15
21 -0.15
22 0.54
23 -0.15
24 0.09
26 -0.15
27 -0.15
28 -0.15
29 -0.15
3 -0.84
31 -0.15
32 -0.15
33 -0.15
34 -0.15
35 -0.15
4 -0.66
44 0.15
45 0.15
46 0.15
47 0.15
48 0.15
49 0.15
5 -0.55
50 0.37
51 0.15
52 0.15
53 0.15
54 0.15
55 0.15
56 0.15
57 0.15
58 0.15
59 0.15
6 0.37
60 0.15
61 0.15
62 0.15
7 0.37
8 0.3
9 0.3

> <PUBCHEM_EFFECTIVE_ROTOR_COUNT>
8.2

> <PUBCHEM_PHARMACOPHORE_FEATURES>
9
1 1 acceptor
1 2 acceptor
1 3 cation
1 5 donor
6 10 12 13 15 16 17 rings
6 14 18 19 20 21 23 rings
6 24 25 26 27 28 29 rings
6 3 4 6 7 8 9 rings
6 30 31 32 33 34 35 rings

> <PUBCHEM_HEAVY_ATOM_COUNT>
35

> <PUBCHEM_ATOM_DEF_STEREO_COUNT>
0

> <PUBCHEM_ATOM_UDEF_STEREO_COUNT>
0

> <PUBCHEM_BOND_DEF_STEREO_COUNT>
0

> <PUBCHEM_BOND_UDEF_STEREO_COUNT>
0

> <PUBCHEM_ISOTOPIC_ATOM_COUNT>
0

> <PUBCHEM_COMPONENT_COUNT>
1

> <PUBCHEM_CACTVS_TAUTO_COUNT>
2

> <PUBCHEM_CONFORMER_ID>
00146D1500000001

> <PUBCHEM_MMFF94_ENERGY>
131.1755

> <PUBCHEM_FEATURE_SELFOVERLAP>
45.673

> <PUBCHEM_SHAPE_FINGERPRINT>
10076449 9 12103845653685445139
10168742 298 12751243640190454804
10391435 84 18261397775651041994
10533779 47 15068614977587085248
10674148 151 17821729434402927257
11061554 47 18260544502729844045
11135926 11 15864060010033224674
11181472 205 16343160026110234018
11211813 74 18130786781398729576
11607047 141 17895748501746119186
12089408 11 16630533903371895787
12522641 33 18131636664288608334
12559415 141 9943527453019464125
12559415 90 18342735191560171305
12664476 115 18260263058118428701
12838862 33 17967246507634632619
13553643 46 17749106707819606316
14040221 8 16774083943008866417
14251764 46 18410575080373392887
14344974 52 18341330076557142843
14359421 15 11026335224166124752
15061470 23 18413386519823741669
15065858 18 18408605859744440275
15461852 350 13614527359021737106
15510794 2 18407763633837661259
155225 1 18409448085941207105
16728433 110 17847058909256801441
1754911 235 16630808824692509040
19315958 150 18410860949598240710
21095086 128 8502653705498624228
21362267 2 17489289907243069296
21362267 313 18262233305735175794
21792934 111 18187082871699155876
21792961 116 12468628448800100871
21895431 317 8141821473719279848
23378982 100 15430301517893257596
23576562 1 15338259294813010040
3092352 35 15769779044683793846
44280117 145 18338800139342088055
44389302 135 15140672588720707824
4760202 170 18201719591704886552
4874694 18 18407760339492503755
5028188 123 18342733028204649903
5381727 24 12757152381681803713
54039377 194 10663820776318291667
59520647 147 17175195921694911732
59521506 201 16269370895287242304
59584819 99 17386573604993350284
6126387 218 18333450945724428969
6201320 215 13479395151513823215
6691757 9 16343991330174304855
67123 10 18202563969505675447
9663363 56 17894347787169398396
9937071 3 14273452566035843336

> <PUBCHEM_SHAPE_MULTIPOLES>
693.6
48.19
1.85
1.18
19.5
0.33
-0.28
24.87
-1.77
-2.74
-0.12
-0.83
0
1.7

> <PUBCHEM_SHAPE_SELFOVERLAP>
1523.054

> <PUBCHEM_SHAPE_VOLUME>
372.2

> <PUBCHEM_COORDINATE_TYPE>
2
5
10

$$$$
