274122
  -OEChem-02101610523D

 45 48  0     1  0  0  0  0  0999 V2000
    2.0891   -1.1255    0.0005 O   0  0  0  0  0  0  0  0  0  0  0  0
   -1.8121    0.6639   -2.8309 O   0  0  0  0  0  0  0  0  0  0  0  0
   -1.5980    2.7649   -1.9730 O   0  0  0  0  0  0  0  0  0  0  0  0
    4.4819    0.0894   -0.0921 O   0  0  0  0  0  0  0  0  0  0  0  0
    2.0667   -3.8665   -0.2797 O   0  0  0  0  0  0  0  0  0  0  0  0
    4.6879    2.8333    0.1737 O   0  0  0  0  0  0  0  0  0  0  0  0
   -0.3651   -5.1535   -0.1908 O   0  0  0  0  0  0  0  0  0  0  0  0
   -1.5817    1.1429    0.5685 C   0  0  1  0  0  0  0  0  0  0  0  0
   -2.5415    0.9945   -0.6202 C   0  0  1  0  0  0  0  0  0  0  0  0
   -2.2409    0.7315    1.8890 C   0  0  0  0  0  0  0  0  0  0  0  0
   -3.8787    1.6976   -0.3649 C   0  0  0  0  0  0  0  0  0  0  0  0
   -3.5612    1.4578    2.1202 C   0  0  0  0  0  0  0  0  0  0  0  0
   -4.5152    1.2576    0.9487 C   0  0  0  0  0  0  0  0  0  0  0  0
   -0.3721    0.2760    0.3699 C   0  0  0  0  0  0  0  0  0  0  0  0
   -1.9351    1.5963   -1.8548 C   0  0  0  0  0  0  0  0  0  0  0  0
    0.9351    0.9819    0.3241 C   0  0  0  0  0  0  0  0  0  0  0  0
   -0.3767   -1.0745    0.2313 C   0  0  0  0  0  0  0  0  0  0  0  0
    2.1009    0.2357    0.1405 C   0  0  0  0  0  0  0  0  0  0  0  0
    0.8833   -1.8112    0.0402 C   0  0  0  0  0  0  0  0  0  0  0  0
    1.0708    2.3749    0.4563 C   0  0  0  0  0  0  0  0  0  0  0  0
   -1.6149   -1.8555    0.2643 C   0  0  0  0  0  0  0  0  0  0  0  0
    3.3601    0.8445    0.0888 C   0  0  0  0  0  0  0  0  0  0  0  0
    0.9024   -3.1489   -0.0996 C   0  0  0  0  0  0  0  0  0  0  0  0
    2.3265    2.9894    0.4056 C   0  0  0  0  0  0  0  0  0  0  0  0
   -1.6232   -3.1867    0.1278 C   0  0  0  0  0  0  0  0  0  0  0  0
    3.4719    2.2239    0.2216 C   0  0  0  0  0  0  0  0  0  0  0  0
   -0.3602   -3.9334   -0.0651 C   0  0  0  0  0  0  0  0  0  0  0  0
   -1.3858    2.2074    0.6690 H   0  0  0  0  0  0  0  0  0  0  0  0
   -2.8021   -0.0315   -0.8732 H   0  0  0  0  0  0  0  0  0  0  0  0
   -1.5651    1.0025    2.7131 H   0  0  0  0  0  0  0  0  0  0  0  0
   -2.4249   -0.3321    2.0322 H   0  0  0  0  0  0  0  0  0  0  0  0
   -4.5713    1.4986   -1.1923 H   0  0  0  0  0  0  0  0  0  0  0  0
   -3.7380    2.7867   -0.3433 H   0  0  0  0  0  0  0  0  0  0  0  0
   -3.3718    2.5294    2.2594 H   0  0  0  0  0  0  0  0  0  0  0  0
   -4.0269    1.0962    3.0440 H   0  0  0  0  0  0  0  0  0  0  0  0
   -4.7999    0.2003    0.8826 H   0  0  0  0  0  0  0  0  0  0  0  0
   -5.4356    1.8267    1.1211 H   0  0  0  0  0  0  0  0  0  0  0  0
    0.2441    3.0576    0.6024 H   0  0  0  0  0  0  0  0  0  0  0  0
   -2.5908   -1.4248    0.4191 H   0  0  0  0  0  0  0  0  0  0  0  0
   -1.4165    1.0381   -3.6468 H   0  0  0  0  0  0  0  0  0  0  0  0
    2.3918    4.0693    0.5116 H   0  0  0  0  0  0  0  0  0  0  0  0
   -2.5471   -3.7530    0.1619 H   0  0  0  0  0  0  0  0  0  0  0  0
    4.2149   -0.8434   -0.1646 H   0  0  0  0  0  0  0  0  0  0  0  0
    2.8066   -3.2344   -0.2820 H   0  0  0  0  0  0  0  0  0  0  0  0
    4.5668    3.7920    0.2842 H   0  0  0  0  0  0  0  0  0  0  0  0
  1 18  1  0  0  0  0
  1 19  1  0  0  0  0
  2 15  1  0  0  0  0
  2 40  1  0  0  0  0
  3 15  2  0  0  0  0
  4 22  1  0  0  0  0
  4 43  1  0  0  0  0
  5 23  1  0  0  0  0
  5 44  1  0  0  0  0
  6 26  1  0  0  0  0
  6 45  1  0  0  0  0
  7 27  2  0  0  0  0
  8  9  1  0  0  0  0
  8 10  1  0  0  0  0
  8 14  1  0  0  0  0
  8 28  1  0  0  0  0
  9 11  1  0  0  0  0
  9 15  1  0  0  0  0
  9 29  1  0  0  0  0
 10 12  1  0  0  0  0
 10 30  1  0  0  0  0
 10 31  1  0  0  0  0
 11 13  1  0  0  0  0
 11 32  1  0  0  0  0
 11 33  1  0  0  0  0
 12 13  1  0  0  0  0
 12 34  1  0  0  0  0
 12 35  1  0  0  0  0
 13 36  1  0  0  0  0
 13 37  1  0  0  0  0
 14 16  1  0  0  0  0
 14 17  2  0  0  0  0
 16 18  2  0  0  0  0
 16 20  1  0  0  0  0
 17 19  1  0  0  0  0
 17 21  1  0  0  0  0
 18 22  1  0  0  0  0
 19 23  2  0  0  0  0
 20 24  2  0  0  0  0
 20 38  1  0  0  0  0
 21 25  2  0  0  0  0
 21 39  1  0  0  0  0
 22 26  2  0  0  0  0
 23 27  1  0  0  0  0
 24 26  1  0  0  0  0
 24 41  1  0  0  0  0
 25 27  1  0  0  0  0
 25 42  1  0  0  0  0
M  END
> <PUBCHEM_COMPOUND_CID>
274122

> <PUBCHEM_CONFORMER_RMSD>
0.8

> <PUBCHEM_CONFORMER_DIVERSEORDER>
1
4
3
2

> <PUBCHEM_MMFF94_PARTIAL_CHARGES>
30
1 -0.16
14 -0.17
15 0.66
16 0.03
18 0.08
19 0.08
2 -0.65
20 -0.15
21 -0.15
22 0.08
23 0.09
24 -0.15
25 -0.14
26 0.08
27 0.54
3 -0.57
38 0.15
39 0.15
4 -0.53
40 0.5
41 0.15
42 0.15
43 0.45
44 0.45
45 0.45
5 -0.53
6 -0.53
7 -0.57
8 0.14
9 0.06

> <PUBCHEM_EFFECTIVE_ROTOR_COUNT>
3.2

> <PUBCHEM_PHARMACOPHORE_FEATURES>
12
1 1 acceptor
1 2 acceptor
1 3 acceptor
1 4 donor
1 5 donor
1 6 donor
1 7 acceptor
3 2 3 15 anion
6 1 14 16 17 18 19 rings
6 16 18 20 22 24 26 rings
6 17 19 21 23 25 27 rings
6 8 9 10 11 12 13 rings

> <PUBCHEM_HEAVY_ATOM_COUNT>
27

> <PUBCHEM_ATOM_DEF_STEREO_COUNT>
0

> <PUBCHEM_ATOM_UDEF_STEREO_COUNT>
2

> <PUBCHEM_BOND_DEF_STEREO_COUNT>
0

> <PUBCHEM_BOND_UDEF_STEREO_COUNT>
0

> <PUBCHEM_ISOTOPIC_ATOM_COUNT>
0

> <PUBCHEM_COMPONENT_COUNT>
1

> <PUBCHEM_CACTVS_TAUTO_COUNT>
38

> <PUBCHEM_CONFORMER_ID>
00042ECA00000001

> <PUBCHEM_MMFF94_ENERGY>
83.1027

> <PUBCHEM_FEATURE_SELFOVERLAP>
61.013

> <PUBCHEM_SHAPE_FINGERPRINT>
10064457 181 18340498870719112320
10165383 225 18192175774513493148
10411042 1 17043733981332455314
10967382 1 18267872674925042618
1100329 8 18340210691910382386
11115154 58 17125344051289582343
11370993 70 18412831308609876505
11578080 2 12878289038750508777
11582403 64 16520417792586108101
11725454 13 17242146012724840085
12156800 1 17762094259414697119
12160290 23 17909520068417262146
12173636 292 18341896350077149849
12553582 1 17476364902696500259
12788726 201 17983563393113314003
13004483 165 17545873189004852114
13140716 1 18411986862479097714
13583140 156 16878484800933190616
138480 1 17835246640400246282
13911987 19 17903928759891027390
14142880 1 18192710270382294793
14400156 96 17687507531547926065
14787075 74 17987798648280324801
14790565 3 18124902083149965816
15324884 4 17750814163968032937
16945 1 18340210665638938000
17138139 8 17628886167084299095
17357779 13 17403433660691428367
18219364 16 18408324362897228377
18915476 22 18192142703645109021
19591789 44 18411426132438400602
19930381 70 18266460893441875985
21120745 212 17184211958709431892
22907989 373 17902499720986263100
229495 10 18124584302856854581
23419403 2 17682127577516488415
238 59 17901631961561888141
283562 15 17979914140070052290
3091708 16 8830994295864831346
350125 39 18195536015081063184
3886686 26 17980441790309273810
4340502 62 18271255971357196537
469060 322 17024859601077494949
474 4 18271528606732114265
57527452 28 14100719534167230581
81228 2 17684644716093732392
8272917 22 18126858092786875537
9925002 15 17612606921950244421

> <PUBCHEM_SHAPE_MULTIPOLES>
514.56
6.53
5.34
1.49
2.13
7.71
0.68
-6.35
-1.24
1.53
0.41
-1.9
-1.16
0.39

> <PUBCHEM_SHAPE_SELFOVERLAP>
1143.625

> <PUBCHEM_SHAPE_VOLUME>
270.1

> <PUBCHEM_COORDINATE_TYPE>
2
5
10

$$$$
