1218955
  -OEChem-02101610503D

 32 34  0     0  0  0  0  0  0999 V2000
   -2.3062    1.1855    0.0151 S   0  0  0  0  0  0  0  0  0  0  0  0
   -0.4795   -1.1551    0.0035 O   0  0  0  0  0  0  0  0  0  0  0  0
    5.5261    0.7346   -0.0071 O   0  0  0  0  0  0  0  0  0  0  0  0
   -5.6764   -0.6221    0.0190 O   0  0  0  0  0  0  0  0  0  0  0  0
    2.0403    2.7848   -0.6234 O   0  0  0  0  0  0  0  0  0  0  0  0
    3.9945    2.9930    0.5000 O   0  0  0  0  0  0  0  0  0  0  0  0
   -3.5666    3.5036    0.0285 O   0  0  0  0  0  0  0  0  0  0  0  0
   -4.8373    1.5485    0.0230 N   0  0  0  0  0  0  0  0  0  0  0  0
    1.8808   -1.2542   -0.0033 C   0  0  0  0  0  0  0  0  0  0  0  0
    0.6180   -1.9514   -0.0021 C   0  0  0  0  0  0  0  0  0  0  0  0
   -1.5549   -1.9857    0.0039 C   0  0  0  0  0  0  0  0  0  0  0  0
    0.2651   -3.2758   -0.0056 C   0  0  0  0  0  0  0  0  0  0  0  0
    1.9073    0.1405    0.0019 C   0  0  0  0  0  0  0  0  0  0  0  0
   -1.1499   -3.3002   -0.0016 C   0  0  0  0  0  0  0  0  0  0  0  0
    3.0752   -1.9744   -0.0092 C   0  0  0  0  0  0  0  0  0  0  0  0
    3.1283    0.8149    0.0012 C   0  0  0  0  0  0  0  0  0  0  0  0
   -2.8819   -1.4975    0.0091 C   0  0  0  0  0  0  0  0  0  0  0  0
    4.3229    0.0946   -0.0046 C   0  0  0  0  0  0  0  0  0  0  0  0
    4.2962   -1.3000   -0.0098 C   0  0  0  0  0  0  0  0  0  0  0  0
   -3.3134   -0.2114    0.0141 C   0  0  0  0  0  0  0  0  0  0  0  0
   -4.7455    0.1694    0.0192 C   0  0  0  0  0  0  0  0  0  0  0  0
    3.1339    2.2713    0.0051 C   0  0  0  0  0  0  0  0  0  0  0  0
   -3.6772    2.2872    0.0230 C   0  0  0  0  0  0  0  0  0  0  0  0
    0.9264   -4.1307   -0.0104 H   0  0  0  0  0  0  0  0  0  0  0  0
    0.9817    0.7094    0.0228 H   0  0  0  0  0  0  0  0  0  0  0  0
   -1.7866   -4.1742   -0.0027 H   0  0  0  0  0  0  0  0  0  0  0  0
    3.0875   -3.0611   -0.0134 H   0  0  0  0  0  0  0  0  0  0  0  0
   -3.6531   -2.2675    0.0091 H   0  0  0  0  0  0  0  0  0  0  0  0
    5.2191   -1.8739   -0.0146 H   0  0  0  0  0  0  0  0  0  0  0  0
   -5.7430    2.0061    0.0269 H   0  0  0  0  0  0  0  0  0  0  0  0
    6.2384    0.0723   -0.0116 H   0  0  0  0  0  0  0  0  0  0  0  0
    2.0447    3.7658   -0.6199 H   0  0  0  0  0  0  0  0  0  0  0  0
  1 20  1  0  0  0  0
  1 23  1  0  0  0  0
  2 10  1  0  0  0  0
  2 11  1  0  0  0  0
  3 18  1  0  0  0  0
  3 31  1  0  0  0  0
  4 21  2  0  0  0  0
  5 22  1  0  0  0  0
  5 32  1  0  0  0  0
  6 22  2  0  0  0  0
  7 23  2  0  0  0  0
  8 21  1  0  0  0  0
  8 23  1  0  0  0  0
  8 30  1  0  0  0  0
  9 10  1  0  0  0  0
  9 13  2  0  0  0  0
  9 15  1  0  0  0  0
 10 12  2  0  0  0  0
 11 14  2  0  0  0  0
 11 17  1  0  0  0  0
 12 14  1  0  0  0  0
 12 24  1  0  0  0  0
 13 16  1  0  0  0  0
 13 25  1  0  0  0  0
 14 26  1  0  0  0  0
 15 19  2  0  0  0  0
 15 27  1  0  0  0  0
 16 18  2  0  0  0  0
 16 22  1  0  0  0  0
 17 20  2  0  0  0  0
 17 28  1  0  0  0  0
 18 19  1  0  0  0  0
 19 29  1  0  0  0  0
 20 21  1  0  0  0  0
M  END
> <PUBCHEM_COMPOUND_CID>
1218955

> <PUBCHEM_CONFORMER_RMSD>
0.6

> <PUBCHEM_CONFORMER_DIVERSEORDER>
1
20
24
25
22
3
17
2
27
5
19
13
6
18
14
7
26
15
8
21
9
4
16
10
23
11
12

> <PUBCHEM_MMFF94_PARTIAL_CHARGES>
32
1 -0.24
10 0.09
11 0.09
12 -0.15
13 -0.15
14 -0.15
15 -0.15
16 0.09
17 -0.11
18 0.08
19 -0.15
2 -0.28
20 0.12
21 0.62
22 0.63
23 0.77
24 0.15
25 0.15
26 0.15
27 0.15
28 0.15
29 0.15
3 -0.53
30 0.37
31 0.45
32 0.5
4 -0.57
5 -0.65
6 -0.57
7 -0.57
8 -0.49
9 0.05

> <PUBCHEM_EFFECTIVE_ROTOR_COUNT>
3.4

> <PUBCHEM_PHARMACOPHORE_FEATURES>
10
1 2 acceptor
1 3 donor
1 4 acceptor
1 5 acceptor
1 6 acceptor
1 8 donor
3 5 6 22 anion
5 1 8 20 21 23 rings
5 2 10 11 12 14 rings
6 9 13 15 16 18 19 rings

> <PUBCHEM_HEAVY_ATOM_COUNT>
23

> <PUBCHEM_ATOM_DEF_STEREO_COUNT>
0

> <PUBCHEM_ATOM_UDEF_STEREO_COUNT>
0

> <PUBCHEM_BOND_DEF_STEREO_COUNT>
1

> <PUBCHEM_BOND_UDEF_STEREO_COUNT>
0

> <PUBCHEM_ISOTOPIC_ATOM_COUNT>
0

> <PUBCHEM_COMPONENT_COUNT>
1

> <PUBCHEM_CACTVS_TAUTO_COUNT>
12

> <PUBCHEM_CONFORMER_ID>
0012998B00000001

> <PUBCHEM_MMFF94_ENERGY>
50.6025

> <PUBCHEM_FEATURE_SELFOVERLAP>
50.807

> <PUBCHEM_SHAPE_FINGERPRINT>
10411042 1 17402049998539541943
11370993 70 18410853256978997409
11578080 2 16986576805580501482
12173636 292 18267019646901422166
12403260 363 18410845547655379183
12633257 1 18262222405145023270
12769317 202 18267856190761205209
12925494 130 18194681454814875665
12978246 48 18409449202100084265
13402501 40 18336264552666543332
13583140 156 17894357682653034987
13590594 115 16970278336421048675
138480 1 17690280404760610915
14251764 38 18410859854091053009
14466204 15 18192705653419117514
14790565 3 18336553737658306508
15196674 1 18338517434964785859
15256400 18 18410012134873460876
15320467 1 18194682798401290601
16760501 71 18123480371844926769
17834072 32 18411983542015735819
19930381 70 18409728426935963745
21279426 13 18268716000633723438
21315764 268 18335133180987001461
21709351 56 18268703918616328695
21734292 116 18412260674965399417
21864079 5 18410569604390629099
23227448 37 18341049700575355415
23558518 356 17972036109324147834
23559900 14 18272653454999943766
245318 6 17823717427759503141
335352 9 18410856573432397462
338550 245 18334862731323682852
350125 39 18410294722098754665
3680242 22 18264206911642295546
392239 28 18262531372466248947
474 4 18410855434680533779
5081480 168 17270356117654385302
5104073 3 18188765184318619378
6328613 192 18261118530242250044
6371009 1 18338499890134222957
7808743 9 18194960970779298096
9981440 41 18334858295044531115

> <PUBCHEM_SHAPE_MULTIPOLES>
436.98
11.21
4.14
0.61
2.94
0.75
0
6.17
-0.25
0.15
0
-0.06
0.03
0.07

> <PUBCHEM_SHAPE_SELFOVERLAP>
957.596

> <PUBCHEM_SHAPE_VOLUME>
237.8

> <PUBCHEM_COORDINATE_TYPE>
2
5
10

$$$$
