2252096
  -OEChem-02101610503D

 57 60  0     0  0  0  0  0  0999 V2000
   -3.7374    0.5689    0.0685 S   0  0  0  0  0  0  0  0  0  0  0  0
    0.4564    0.8323   -1.9613 O   0  0  0  0  0  0  0  0  0  0  0  0
   -3.9568   -2.1599    0.3336 O   0  0  0  0  0  0  0  0  0  0  0  0
    6.4645    0.5260    0.3491 O   0  0  0  0  0  0  0  0  0  0  0  0
   -1.8413   -1.2331   -0.1377 N   0  0  0  0  0  0  0  0  0  0  0  0
    0.9480    1.0956    0.3226 N   0  0  0  0  0  0  0  0  0  0  0  0
   -1.6153    4.7595    0.3892 C   0  0  0  0  0  0  0  0  0  0  0  0
   -3.0322    5.3311    0.4966 C   0  0  0  0  0  0  0  0  0  0  0  0
   -1.4251    3.7649   -0.7568 C   0  0  0  0  0  0  0  0  0  0  0  0
   -4.1022    4.3388    0.9617 C   0  0  0  0  0  0  0  0  0  0  0  0
   -2.0386    2.4255   -0.4852 C   0  0  0  0  0  0  0  0  0  0  0  0
   -4.4485    3.2600   -0.0659 C   0  0  0  0  0  0  0  0  0  0  0  0
   -3.3738    2.2228   -0.1821 C   0  0  0  0  0  0  0  0  0  0  0  0
   -1.3200    1.1861   -0.5065 C   0  0  0  0  0  0  0  0  0  0  0  0
   -2.1212    0.1041   -0.2224 C   0  0  0  0  0  0  0  0  0  0  0  0
    0.0872    1.0320   -0.7871 C   0  0  0  0  0  0  0  0  0  0  0  0
   -2.7526   -2.2682    0.1293 C   0  0  0  0  0  0  0  0  0  0  0  0
    2.3390    0.9524    0.3288 C   0  0  0  0  0  0  0  0  0  0  0  0
   -2.1767   -3.6393    0.1324 C   0  0  0  0  0  0  0  0  0  0  0  0
    3.0404    1.0434    1.5292 C   0  0  0  0  0  0  0  0  0  0  0  0
    3.0184    0.7179   -0.8647 C   0  0  0  0  0  0  0  0  0  0  0  0
    4.4279    0.8994    1.5362 C   0  0  0  0  0  0  0  0  0  0  0  0
    4.4059    0.5737   -0.8577 C   0  0  0  0  0  0  0  0  0  0  0  0
   -2.9953   -4.7045   -0.1776 C   0  0  0  0  0  0  0  0  0  0  0  0
   -0.8433   -3.7993    0.4445 C   0  0  0  0  0  0  0  0  0  0  0  0
    5.1107    0.6645    0.3426 C   0  0  0  0  0  0  0  0  0  0  0  0
   -2.4550   -5.9906   -0.1751 C   0  0  0  0  0  0  0  0  0  0  0  0
   -0.3032   -5.0854    0.4469 C   0  0  0  0  0  0  0  0  0  0  0  0
   -1.1091   -6.1810    0.1371 C   0  0  0  0  0  0  0  0  0  0  0  0
    7.0362   -0.3137   -0.6529 C   0  0  0  0  0  0  0  0  0  0  0  0
    8.3129   -0.9240   -0.1151 C   0  0  0  0  0  0  0  0  0  0  0  0
   -0.9330    5.6021    0.2185 H   0  0  0  0  0  0  0  0  0  0  0  0
   -1.3213    4.3070    1.3445 H   0  0  0  0  0  0  0  0  0  0  0  0
   -3.0042    6.1540    1.2223 H   0  0  0  0  0  0  0  0  0  0  0  0
   -3.3280    5.7764   -0.4612 H   0  0  0  0  0  0  0  0  0  0  0  0
   -0.3485    3.6557   -0.9328 H   0  0  0  0  0  0  0  0  0  0  0  0
   -1.8444    4.1727   -1.6851 H   0  0  0  0  0  0  0  0  0  0  0  0
   -3.8006    3.8836    1.9134 H   0  0  0  0  0  0  0  0  0  0  0  0
   -5.0157    4.9121    1.1649 H   0  0  0  0  0  0  0  0  0  0  0  0
   -5.3956    2.7937    0.2334 H   0  0  0  0  0  0  0  0  0  0  0  0
   -4.6243    3.7141   -1.0489 H   0  0  0  0  0  0  0  0  0  0  0  0
   -0.8757   -1.4653   -0.3491 H   0  0  0  0  0  0  0  0  0  0  0  0
    0.5182    1.2611    1.2304 H   0  0  0  0  0  0  0  0  0  0  0  0
    2.5207    1.2259    2.4662 H   0  0  0  0  0  0  0  0  0  0  0  0
    2.5585    0.6399   -1.8380 H   0  0  0  0  0  0  0  0  0  0  0  0
    4.9716    0.9711    2.4743 H   0  0  0  0  0  0  0  0  0  0  0  0
    4.9029    0.4202   -1.8112 H   0  0  0  0  0  0  0  0  0  0  0  0
   -4.0435   -4.5746   -0.4292 H   0  0  0  0  0  0  0  0  0  0  0  0
   -0.1903   -2.9819    0.7310 H   0  0  0  0  0  0  0  0  0  0  0  0
   -3.0821   -6.8437   -0.4173 H   0  0  0  0  0  0  0  0  0  0  0  0
    0.7426   -5.2354    0.6990 H   0  0  0  0  0  0  0  0  0  0  0  0
   -0.6889   -7.1824    0.1408 H   0  0  0  0  0  0  0  0  0  0  0  0
    7.2583    0.2867   -1.5419 H   0  0  0  0  0  0  0  0  0  0  0  0
    6.3665   -1.1393   -0.9245 H   0  0  0  0  0  0  0  0  0  0  0  0
    8.1089   -1.5168    0.7828 H   0  0  0  0  0  0  0  0  0  0  0  0
    9.0218   -0.1415    0.1750 H   0  0  0  0  0  0  0  0  0  0  0  0
    8.7850   -1.5673   -0.8630 H   0  0  0  0  0  0  0  0  0  0  0  0
  1 13  1  0  0  0  0
  1 15  1  0  0  0  0
  2 16  2  0  0  0  0
  3 17  2  0  0  0  0
  4 26  1  0  0  0  0
  4 30  1  0  0  0  0
  5 15  1  0  0  0  0
  5 17  1  0  0  0  0
  5 42  1  0  0  0  0
  6 16  1  0  0  0  0
  6 18  1  0  0  0  0
  6 43  1  0  0  0  0
  7  8  1  0  0  0  0
  7  9  1  0  0  0  0
  7 32  1  0  0  0  0
  7 33  1  0  0  0  0
  8 10  1  0  0  0  0
  8 34  1  0  0  0  0
  8 35  1  0  0  0  0
  9 11  1  0  0  0  0
  9 36  1  0  0  0  0
  9 37  1  0  0  0  0
 10 12  1  0  0  0  0
 10 38  1  0  0  0  0
 10 39  1  0  0  0  0
 11 13  2  0  0  0  0
 11 14  1  0  0  0  0
 12 13  1  0  0  0  0
 12 40  1  0  0  0  0
 12 41  1  0  0  0  0
 14 15  2  0  0  0  0
 14 16  1  0  0  0  0
 17 19  1  0  0  0  0
 18 20  2  0  0  0  0
 18 21  1  0  0  0  0
 19 24  2  0  0  0  0
 19 25  1  0  0  0  0
 20 22  1  0  0  0  0
 20 44  1  0  0  0  0
 21 23  2  0  0  0  0
 21 45  1  0  0  0  0
 22 26  2  0  0  0  0
 22 46  1  0  0  0  0
 23 26  1  0  0  0  0
 23 47  1  0  0  0  0
 24 27  1  0  0  0  0
 24 48  1  0  0  0  0
 25 28  2  0  0  0  0
 25 49  1  0  0  0  0
 27 29  2  0  0  0  0
 27 50  1  0  0  0  0
 28 29  1  0  0  0  0
 28 51  1  0  0  0  0
 29 52  1  0  0  0  0
 30 31  1  0  0  0  0
 30 53  1  0  0  0  0
 30 54  1  0  0  0  0
 31 55  1  0  0  0  0
 31 56  1  0  0  0  0
 31 57  1  0  0  0  0
M  END
> <PUBCHEM_COMPOUND_CID>
2252096

> <PUBCHEM_CONFORMER_RMSD>
1

> <PUBCHEM_CONFORMER_DIVERSEORDER>
1
14
9
17
7
11
4
12
15
8
16
13
2
10
3
5
6

> <PUBCHEM_MMFF94_PARTIAL_CHARGES>
38
1 -0.08
11 -0.18
12 0.18
13 -0.14
14 -0.09
15 0.1
16 0.72
17 0.54
18 0.12
19 0.09
2 -0.57
20 -0.15
21 -0.15
22 -0.15
23 -0.15
24 -0.15
25 -0.15
26 0.08
27 -0.15
28 -0.15
29 -0.15
3 -0.57
30 0.28
4 -0.36
42 0.37
43 0.37
44 0.15
45 0.15
46 0.15
47 0.15
48 0.15
49 0.15
5 -0.49
50 0.15
51 0.15
52 0.15
6 -0.55
9 0.18

> <PUBCHEM_EFFECTIVE_ROTOR_COUNT>
9

> <PUBCHEM_PHARMACOPHORE_FEATURES>
9
1 2 acceptor
1 3 acceptor
1 4 acceptor
1 5 donor
1 6 donor
5 1 11 13 14 15 rings
6 18 20 21 22 23 26 rings
6 19 24 25 27 28 29 rings
7 7 8 9 10 11 12 13 rings

> <PUBCHEM_HEAVY_ATOM_COUNT>
31

> <PUBCHEM_ATOM_DEF_STEREO_COUNT>
0

> <PUBCHEM_ATOM_UDEF_STEREO_COUNT>
0

> <PUBCHEM_BOND_DEF_STEREO_COUNT>
0

> <PUBCHEM_BOND_UDEF_STEREO_COUNT>
0

> <PUBCHEM_ISOTOPIC_ATOM_COUNT>
0

> <PUBCHEM_COMPONENT_COUNT>
1

> <PUBCHEM_CACTVS_TAUTO_COUNT>
7

> <PUBCHEM_CONFORMER_ID>
00225D4000000001

> <PUBCHEM_MMFF94_ENERGY>
94.7357

> <PUBCHEM_FEATURE_SELFOVERLAP>
45.695

> <PUBCHEM_SHAPE_FINGERPRINT>
10290309 65 17832141628180410260
10940486 97 18261119577940106828
11049842 53 17974034785139458702
11056379 131 18410011057095158316
11377469 6 17459193039225362975
11552529 35 18335411422264957116
11763715 3 17830756591458238748
11796584 16 18340488877500878006
12107183 9 17762920049242218139
12788726 201 18117013271170504341
13540713 5 17408788936257175669
138480 1 17041195736948042439
14363568 33 17329154568113409571
14444916 359 18195259818692856008
14844126 61 18334577996577155211
14856354 85 18413394241847951316
14866123 147 18267028430663748571
15230672 131 18192994821410696830
15347591 1 17474108701713331953
15400415 2 18194401092060348140
15439362 3 17760084017510946917
15927050 60 18197214737935931295
17980427 26 17764577721317156541
19304671 126 16610198681537405151
20609170 109 16750646933281656272
20771845 165 17391345218008804253
20775438 99 16828923464572139631
21133410 52 15967359450133471940
21796203 349 17466825926592737531
22956985 138 17255670318852232097
23516275 137 17829629266302782218
23559900 14 17474944810984645131
249999 5 17834398913368478217
283562 15 18342170013331470189
32027 91 17689991658774007751
3383291 50 18410853270338724641
4017518 198 18336543798608150758
4073 2 18412824677992585324
4144715 1 18342737443051787232
463206 1 17755857872169771555
5171179 24 16821073500826026077
5265222 85 18266743485278921072
59755656 520 18339637815923653572
613672 6 17763436805999112682
6700243 42 17695390140611845412
6703917 75 18268445541884733832
9896288 288 18410019806101653467
9981440 41 18264777549993910625

> <PUBCHEM_SHAPE_MULTIPOLES>
614.24
13.01
9.79
1.06
36.16
14.57
-0.01
-6.95
-0.48
-16.87
-1.33
0.7
-0.54
-0.18

> <PUBCHEM_SHAPE_SELFOVERLAP>
1313.59

> <PUBCHEM_SHAPE_VOLUME>
340.5

> <PUBCHEM_COORDINATE_TYPE>
2
5
10

$$$$
