3130947
  -OEChem-02101610513D

 47 49  0     0  0  0  0  0  0999 V2000
   -1.0022    3.1721   -0.6606 S   0  0  0  0  0  0  0  0  0  0  0  0
    6.9976   -0.7973    1.0352 O   0  0  0  0  0  0  0  0  0  0  0  0
   -2.2354    1.7507    1.6907 O   0  0  0  0  0  0  0  0  0  0  0  0
   -4.6471   -2.6875    1.8373 O   0  0  0  0  0  0  0  0  0  0  0  0
   -6.9330   -2.2059    0.3309 O   0  0  0  0  0  0  0  0  0  0  0  0
   -0.8835    0.6604   -1.4908 N   0  0  0  0  0  0  0  0  0  0  0  0
   -1.0417   -1.5477   -2.3210 N   0  0  0  0  0  0  0  0  0  0  0  0
    2.4754    3.3172    0.7370 N   0  0  0  0  0  0  0  0  0  0  0  0
    2.0411   -3.1660   -1.6989 N   0  0  0  0  0  0  0  0  0  0  0  0
    1.7484    0.1768   -0.6466 C   0  0  0  0  0  0  0  0  0  0  0  0
    3.1054   -0.0739   -0.2118 C   0  0  0  0  0  0  0  0  0  0  0  0
    1.1555    1.4234   -0.4394 C   0  0  0  0  0  0  0  0  0  0  0  0
    1.0120   -0.8255   -1.2801 C   0  0  0  0  0  0  0  0  0  0  0  0
   -0.1464    1.6117   -0.8747 C   0  0  0  0  0  0  0  0  0  0  0  0
    4.1722    0.1795   -1.0738 C   0  0  0  0  0  0  0  0  0  0  0  0
    3.3466   -0.5700    1.0694 C   0  0  0  0  0  0  0  0  0  0  0  0
   -0.2835   -0.5366   -1.6778 C   0  0  0  0  0  0  0  0  0  0  0  0
   -2.7230    2.6203   -0.5137 C   0  0  0  0  0  0  0  0  0  0  0  0
   -3.9824    0.6476    0.5804 C   0  0  0  0  0  0  0  0  0  0  0  0
    5.4803   -0.0633   -0.6547 C   0  0  0  0  0  0  0  0  0  0  0  0
    4.6546   -0.8127    1.4885 C   0  0  0  0  0  0  0  0  0  0  0  0
    5.7215   -0.5593    0.6265 C   0  0  0  0  0  0  0  0  0  0  0  0
   -2.9131    1.6872    0.6678 C   0  0  0  0  0  0  0  0  0  0  0  0
   -3.8053   -0.5370    1.2566 C   0  0  0  0  0  0  0  0  0  0  0  0
   -5.1012    0.9167   -0.1731 C   0  0  0  0  0  0  0  0  0  0  0  0
   -4.8038   -1.5075    1.1749 C   0  0  0  0  0  0  0  0  0  0  0  0
   -6.0997   -0.0537   -0.2550 C   0  0  0  0  0  0  0  0  0  0  0  0
   -5.9509   -1.2659    0.4191 C   0  0  0  0  0  0  0  0  0  0  0  0
    1.8871    2.4730    0.2126 C   0  0  0  0  0  0  0  0  0  0  0  0
    1.5821   -2.1223   -1.5122 C   0  0  0  0  0  0  0  0  0  0  0  0
    7.1723   -1.3043    2.3574 C   0  0  0  0  0  0  0  0  0  0  0  0
    4.0020    0.5662   -2.0759 H   0  0  0  0  0  0  0  0  0  0  0  0
    2.5255   -0.7729    1.7533 H   0  0  0  0  0  0  0  0  0  0  0  0
   -3.3541    3.5009   -0.3581 H   0  0  0  0  0  0  0  0  0  0  0  0
   -3.0177    2.1433   -1.4527 H   0  0  0  0  0  0  0  0  0  0  0  0
    6.3074    0.1358   -1.3307 H   0  0  0  0  0  0  0  0  0  0  0  0
    4.7703   -1.1981    2.4958 H   0  0  0  0  0  0  0  0  0  0  0  0
   -2.9116   -0.7345    1.8415 H   0  0  0  0  0  0  0  0  0  0  0  0
   -5.2496    1.8582   -0.6915 H   0  0  0  0  0  0  0  0  0  0  0  0
   -6.9929    0.1420   -0.8421 H   0  0  0  0  0  0  0  0  0  0  0  0
   -1.9874   -1.2983   -2.5852 H   0  0  0  0  0  0  0  0  0  0  0  0
   -0.5594   -2.2217   -2.9026 H   0  0  0  0  0  0  0  0  0  0  0  0
    6.7110   -2.2908    2.4743 H   0  0  0  0  0  0  0  0  0  0  0  0
    6.8231   -0.5908    3.1115 H   0  0  0  0  0  0  0  0  0  0  0  0
    8.2482   -1.4341    2.5144 H   0  0  0  0  0  0  0  0  0  0  0  0
   -5.5144   -3.0979    1.9847 H   0  0  0  0  0  0  0  0  0  0  0  0
   -6.5666   -3.0819    0.5327 H   0  0  0  0  0  0  0  0  0  0  0  0
  1 14  1  0  0  0  0
  1 18  1  0  0  0  0
  2 22  1  0  0  0  0
  2 31  1  0  0  0  0
  3 23  2  0  0  0  0
  4 26  1  0  0  0  0
  4 46  1  0  0  0  0
  5 28  1  0  0  0  0
  5 47  1  0  0  0  0
  6 14  1  0  0  0  0
  6 17  2  0  0  0  0
  7 17  1  0  0  0  0
  7 41  1  0  0  0  0
  7 42  1  0  0  0  0
  8 29  3  0  0  0  0
  9 30  3  0  0  0  0
 10 11  1  0  0  0  0
 10 12  1  0  0  0  0
 10 13  2  0  0  0  0
 11 15  2  0  0  0  0
 11 16  1  0  0  0  0
 12 14  2  0  0  0  0
 12 29  1  0  0  0  0
 13 17  1  0  0  0  0
 13 30  1  0  0  0  0
 15 20  1  0  0  0  0
 15 32  1  0  0  0  0
 16 21  2  0  0  0  0
 16 33  1  0  0  0  0
 18 23  1  0  0  0  0
 18 34  1  0  0  0  0
 18 35  1  0  0  0  0
 19 23  1  0  0  0  0
 19 24  2  0  0  0  0
 19 25  1  0  0  0  0
 20 22  2  0  0  0  0
 20 36  1  0  0  0  0
 21 22  1  0  0  0  0
 21 37  1  0  0  0  0
 24 26  1  0  0  0  0
 24 38  1  0  0  0  0
 25 27  2  0  0  0  0
 25 39  1  0  0  0  0
 26 28  2  0  0  0  0
 27 28  1  0  0  0  0
 27 40  1  0  0  0  0
 31 43  1  0  0  0  0
 31 44  1  0  0  0  0
 31 45  1  0  0  0  0
M  END
> <PUBCHEM_COMPOUND_CID>
3130947

> <PUBCHEM_CONFORMER_RMSD>
0.8

> <PUBCHEM_CONFORMER_DIVERSEORDER>
1
260
24
279
129
15
316
149
59
179
237
269
94
42
332
17
66
122
6
22
109
178
220
273
123
335
14
18
3
160
55
150
315
51
174
168
264
85
52
201
69
156
120
325
225
226
127
104
137
322
92
56
289
235
54
200
212
19
308
152
224
2
44
107
286
50
208
43
7
334
290
31
277
73
223
324
270
154
261
135
60
143
131
297
327
82
193
210
285
110
196
185
180
35
236
8
13
203
263
16
282
5
262
111
11
40
317
328
326
163
330
67
166
320
96
181
20
192
108
305
53
155
255
331
25
45
300
187
77
329
271
136
117
176
30
134
144
301
112
100
211
9
41
36
84
164
106
12
115
138
99
173
302
49
336
64
295
321
125
213
116
119
307
114
102
233
90
140
284
62
222
314
312
46
148
230
4
142
83
105
251
182
310
126
133
141
337
86
153
165
189
10
249
206
33
167
97
265
88
183
250
218
254
231
243
57
93
89
267
113
130
280
311
21
215
161
276
202
118
75
58
246
26
121
61
232
80
32
159
214
23
319
256
158
266
234
274
71
145
98
253
204
27
275
74
304
171
169
151
323
194
238
259
48
76
247
190
28
177
81
198
207
91
38
278
172
146
272
219
252
186
139
170
47
258
240
79
306
103
101
157
132
63
95
294
128
37
313
216
184
205
29
296
124
65
257
229
227
197
217
175
87
292
221
248
338
70
268
309
318
281
244
188
245
34
39
288
162
195
242
298
241
68
239
209
147
291
303
199
333
287
283
299
228
293
72
191
78

> <PUBCHEM_MMFF94_PARTIAL_CHARGES>
40
1 -0.33
12 0.07
13 0.07
14 0.41
15 -0.15
16 -0.15
17 0.41
18 0.29
19 0.09
2 -0.36
20 -0.15
21 -0.15
22 0.08
23 0.42
24 -0.15
25 -0.15
26 0.08
27 -0.15
28 0.08
29 0.48
3 -0.57
30 0.48
31 0.28
32 0.15
33 0.15
36 0.15
37 0.15
38 0.15
39 0.15
4 -0.53
40 0.15
41 0.4
42 0.4
46 0.45
47 0.45
5 -0.53
6 -0.62
7 -0.9
8 -0.56
9 -0.56

> <PUBCHEM_EFFECTIVE_ROTOR_COUNT>
6

> <PUBCHEM_PHARMACOPHORE_FEATURES>
11
1 2 acceptor
1 3 acceptor
1 4 donor
1 5 donor
1 7 donor
1 8 acceptor
1 9 acceptor
3 6 7 17 cation
6 11 15 16 20 21 22 rings
6 19 24 25 26 27 28 rings
6 6 10 12 13 14 17 rings

> <PUBCHEM_HEAVY_ATOM_COUNT>
31

> <PUBCHEM_ATOM_DEF_STEREO_COUNT>
0

> <PUBCHEM_ATOM_UDEF_STEREO_COUNT>
0

> <PUBCHEM_BOND_DEF_STEREO_COUNT>
0

> <PUBCHEM_BOND_UDEF_STEREO_COUNT>
0

> <PUBCHEM_ISOTOPIC_ATOM_COUNT>
0

> <PUBCHEM_COMPONENT_COUNT>
1

> <PUBCHEM_CACTVS_TAUTO_COUNT>
44

> <PUBCHEM_CONFORMER_ID>
002FC64300000001

> <PUBCHEM_MMFF94_ENERGY>
106.5988

> <PUBCHEM_FEATURE_SELFOVERLAP>
55.826

> <PUBCHEM_SHAPE_FINGERPRINT>
10 15 18201431494046048808
10190206 1 11458699457550267054
11445158 3 18334008432807050748
11646440 116 17418372485266526600
11828532 37 17679034931377936395
11963148 33 18409727348430356446
12035758 1 17917699202826027272
12166972 35 17240772847508922359
12202916 173 18410008845762436295
12422481 6 18131635599035614805
12633257 1 18338814329122438289
12838863 1 18338227271945300139
13140716 1 18129089186135725100
13540713 4 17912928284091113700
13782708 43 15358253763930858762
14068700 675 17967530177213030953
14955137 171 18272656714763966588
15183329 4 12757144675856210265
17913733 40 17489305252860166326
20028762 73 17988645241705244559
20739085 24 18266742556991232596
21033648 29 17131261355674211104
21781051 124 18271252625952563854
22182313 1 17986959544398052388
23536364 44 11169913853295009991
23559900 14 18270972220015838997
23569914 152 12182886198146068728
23572383 38 18409733967723253015
255183 313 17846200164884618574
2838139 119 13326565268376995986
3009799 131 12035453839582106542
392239 28 16988838402108866057
439807 62 17604441816223363067
465052 167 18335706056878823644
469060 322 18129642176244499693
563151 74 15482666867214728134
5718773 13 18261392299768069611
57527293 21 17896896352365699852
6081469 158 17676480653880249783
613672 6 18337124414532115271
7808743 9 11383830459540385545
9896288 288 18053376592641663296

> <PUBCHEM_SHAPE_MULTIPOLES>
598.41
16.16
3.2
1.88
1.54
1.14
-0.07
-10.14
9.05
-1.94
-0.02
1.32
-1.09
0.46

> <PUBCHEM_SHAPE_SELFOVERLAP>
1296.596

> <PUBCHEM_SHAPE_VOLUME>
329.2

> <PUBCHEM_COORDINATE_TYPE>
2
5
10

$$$$
