746312
  -OEChem-02101610513D

 32 33  0     0  0  0  0  0  0999 V2000
    0.1881    0.8039    0.4475 S   0  0  0  0  0  0  0  0  0  0  0  0
    0.0237    0.6243    1.8789 O   0  0  0  0  0  0  0  0  0  0  0  0
   -0.0504    2.1008   -0.1609 O   0  0  0  0  0  0  0  0  0  0  0  0
   -6.0279   -0.0969   -0.1227 O   0  0  0  0  0  0  0  0  0  0  0  0
   -0.6432   -0.3329   -0.3728 N   0  0  0  0  0  0  0  0  0  0  0  0
    1.8763    0.3829    0.1154 C   0  0  0  0  0  0  0  0  0  0  0  0
    2.4339   -0.7607    0.6599 C   0  0  0  0  0  0  0  0  0  0  0  0
    4.5197   -0.2275   -0.4366 C   0  0  0  0  0  0  0  0  0  0  0  0
    3.7657   -1.0684    0.3820 C   0  0  0  0  0  0  0  0  0  0  0  0
    2.6100    1.2288   -0.6993 C   0  0  0  0  0  0  0  0  0  0  0  0
    3.9418    0.9211   -0.9773 C   0  0  0  0  0  0  0  0  0  0  0  0
    1.6537   -1.6823    1.5396 C   0  0  0  0  0  0  0  0  0  0  0  0
    5.9440   -0.5560   -0.7338 C   0  0  0  0  0  0  0  0  0  0  0  0
   -1.9365   -0.2917   -0.3243 C   0  0  0  0  0  0  0  0  0  0  0  0
   -2.6228    0.7631    0.4584 C   0  0  0  0  0  0  0  0  0  0  0  0
   -2.7927   -1.2717   -1.0295 C   0  0  0  0  0  0  0  0  0  0  0  0
   -3.9545    0.8253    0.5228 C   0  0  0  0  0  0  0  0  0  0  0  0
   -4.1241   -1.2076   -0.9638 C   0  0  0  0  0  0  0  0  0  0  0  0
   -4.8047   -0.1546   -0.1832 C   0  0  0  0  0  0  0  0  0  0  0  0
    4.2226   -1.9607    0.8037 H   0  0  0  0  0  0  0  0  0  0  0  0
    2.1891    2.1280   -1.1372 H   0  0  0  0  0  0  0  0  0  0  0  0
    4.5192    1.5849   -1.6155 H   0  0  0  0  0  0  0  0  0  0  0  0
    2.1882   -2.6297    1.6810 H   0  0  0  0  0  0  0  0  0  0  0  0
    0.6880   -1.9561    1.1085 H   0  0  0  0  0  0  0  0  0  0  0  0
    1.5194   -1.2508    2.5358 H   0  0  0  0  0  0  0  0  0  0  0  0
    6.5947   -0.1422    0.0429 H   0  0  0  0  0  0  0  0  0  0  0  0
    6.0963   -1.6396   -0.7807 H   0  0  0  0  0  0  0  0  0  0  0  0
    6.2519   -0.1474   -1.7024 H   0  0  0  0  0  0  0  0  0  0  0  0
   -2.1125    1.5307    1.0209 H   0  0  0  0  0  0  0  0  0  0  0  0
   -2.3012   -2.0485   -1.6050 H   0  0  0  0  0  0  0  0  0  0  0  0
   -4.4522    1.5978    1.0986 H   0  0  0  0  0  0  0  0  0  0  0  0
   -4.7436   -1.9298   -1.4837 H   0  0  0  0  0  0  0  0  0  0  0  0
  1  2  2  0  0  0  0
  1  3  2  0  0  0  0
  1  5  1  0  0  0  0
  1  6  1  0  0  0  0
  4 19  2  0  0  0  0
  5 14  2  0  0  0  0
  6  7  2  0  0  0  0
  6 10  1  0  0  0  0
  7  9  1  0  0  0  0
  7 12  1  0  0  0  0
  8  9  2  0  0  0  0
  8 11  1  0  0  0  0
  8 13  1  0  0  0  0
  9 20  1  0  0  0  0
 10 11  2  0  0  0  0
 10 21  1  0  0  0  0
 11 22  1  0  0  0  0
 12 23  1  0  0  0  0
 12 24  1  0  0  0  0
 12 25  1  0  0  0  0
 13 26  1  0  0  0  0
 13 27  1  0  0  0  0
 13 28  1  0  0  0  0
 14 15  1  0  0  0  0
 14 16  1  0  0  0  0
 15 17  2  0  0  0  0
 15 29  1  0  0  0  0
 16 18  2  0  0  0  0
 16 30  1  0  0  0  0
 17 19  1  0  0  0  0
 17 31  1  0  0  0  0
 18 19  1  0  0  0  0
 18 32  1  0  0  0  0
M  END
> <PUBCHEM_COMPOUND_CID>
746312

> <PUBCHEM_CONFORMER_RMSD>
0.6

> <PUBCHEM_CONFORMER_DIVERSEORDER>
1
2

> <PUBCHEM_MMFF94_PARTIAL_CHARGES>
26
1 1.5
10 -0.15
11 -0.15
12 0.14
13 0.14
14 0.42
15 -0.14
16 -0.14
17 -0.14
18 -0.14
19 0.54
2 -0.65
20 0.15
21 0.15
22 0.15
29 0.15
3 -0.65
30 0.15
31 0.15
32 0.15
4 -0.57
5 -0.64
6 -0.01
7 -0.14
8 -0.14
9 -0.15

> <PUBCHEM_EFFECTIVE_ROTOR_COUNT>
2

> <PUBCHEM_PHARMACOPHORE_FEATURES>
7
1 2 acceptor
1 3 acceptor
1 4 acceptor
1 5 acceptor
1 5 donor
6 14 15 16 17 18 19 rings
6 6 7 8 9 10 11 rings

> <PUBCHEM_HEAVY_ATOM_COUNT>
19

> <PUBCHEM_ATOM_DEF_STEREO_COUNT>
0

> <PUBCHEM_ATOM_UDEF_STEREO_COUNT>
0

> <PUBCHEM_BOND_DEF_STEREO_COUNT>
0

> <PUBCHEM_BOND_UDEF_STEREO_COUNT>
0

> <PUBCHEM_ISOTOPIC_ATOM_COUNT>
0

> <PUBCHEM_COMPONENT_COUNT>
1

> <PUBCHEM_CACTVS_TAUTO_COUNT>
1

> <PUBCHEM_CONFORMER_ID>
000B634800000001

> <PUBCHEM_MMFF94_ENERGY>
47.9434

> <PUBCHEM_FEATURE_SELFOVERLAP>
35.574

> <PUBCHEM_SHAPE_FINGERPRINT>
11287383 113 16370448873091106343
11471102 20 17894351081625533528
11578080 2 18196905864915245728
11796584 16 17203615856844045302
12107183 9 17615121088594424097
12236239 1 18412548691224397744
12507557 5 11312053253646635951
12553582 1 18338221722255755087
12633257 1 13254790244379081302
12730499 353 16805327686365711874
12788726 201 18339924792542129937
13167823 11 18412262852407998711
13288520 33 17989490709990103597
13760787 19 18408038533293015423
13836976 161 17967537878563964574
14386348 63 16056882428978243220
14573314 32 16415487016959339573
14576447 43 18408321082159119670
15188451 53 14979377570125671549
15527383 91 13542459869716834218
15537594 2 18409445882306791483
16752209 62 18060131003907515521
17804303 29 17775562074590949009
17834072 33 18335138713205500487
18186145 218 17240762917032915384
19489759 90 16056602041292961515
200 152 18260831479785851128
20612939 158 18114468945804036468
20645477 70 17241038812884240290
20681677 155 18343018904246387579
21267235 1 18342183280110245023
23175994 123 15554448513677029835
23402539 116 18335422348756547940
23402655 69 18113897109304673692
23557571 272 17346322549002319464
23559900 14 17489297633250170432
2871803 45 18040997319783057132
2916195 48 13407079232002929766
29717793 49 18272655636320610548
3004659 81 18342178860667973470
3060560 45 17749107803468184830
33382 64 17131281151864390942
3411729 13 17273115007630760912
351380 180 12751240307163340747
351380 3 18342455950287999855
4325135 7 17917991711763807280
465052 167 18201162147767085143
474 4 17750519657586215108
5104073 3 17488463147497035603
5281201 14 16805600331000607134
5385378 56 17202503108622967159
542803 24 16225764112359396093
559249 180 18200595791519437103
7164475 11 18190174590631869764
7495541 125 16773793723483878752
9981440 41 17187277409965555753

> <PUBCHEM_SHAPE_MULTIPOLES>
372.27
11.92
1.49
1.19
2.73
0.08
-0.28
-1.99
3.37
-0.3
-0.08
-0.2
-0.2
-1.18

> <PUBCHEM_SHAPE_SELFOVERLAP>
785.554

> <PUBCHEM_SHAPE_VOLUME>
209.2

> <PUBCHEM_COORDINATE_TYPE>
2
5
10

$$$$
