5349528
  -OEChem-02101610513D

 32 34  0     0  0  0  0  0  0999 V2000
   -2.0352    3.0323    0.1549 S   0  0  0  0  0  0  0  0  0  0  0  0
   -2.6376   -0.2306   -2.1933 F   0  0  0  0  0  0  0  0  0  0  0  0
   -0.5021   -1.8791    0.2452 O   0  0  0  0  0  0  0  0  0  0  0  0
    2.6532    1.6375   -0.1262 O   0  0  0  0  0  0  0  0  0  0  0  0
   -1.2404    0.3516    0.1526 N   0  0  0  0  0  0  0  0  0  0  0  0
    0.3973    2.0701   -0.0420 N   0  0  0  0  0  0  0  0  0  0  0  0
    4.1391   -0.8105   -1.0214 N   0  0  0  0  0  0  0  0  0  0  0  0
    1.1434   -0.1882    0.1461 C   0  0  0  0  0  0  0  0  0  0  0  0
   -0.2629   -0.6717    0.2021 C   0  0  0  0  0  0  0  0  0  0  0  0
   -2.6098   -0.1029    0.1783 C   0  0  0  0  0  0  0  0  0  0  0  0
   -0.9512    1.7394    0.0683 C   0  0  0  0  0  0  0  0  0  0  0  0
    2.1399   -1.0808    0.2428 C   0  0  0  0  0  0  0  0  0  0  0  0
    1.4986    1.2350   -0.0235 C   0  0  0  0  0  0  0  0  0  0  0  0
    3.5765   -0.7705    0.1939 C   0  0  0  0  0  0  0  0  0  0  0  0
   -3.2590   -0.3785   -1.0145 C   0  0  0  0  0  0  0  0  0  0  0  0
   -3.2494   -0.2551    1.3983 C   0  0  0  0  0  0  0  0  0  0  0  0
    4.4479   -0.4487    1.1478 C   0  0  0  0  0  0  0  0  0  0  0  0
   -4.5825   -0.8179   -0.9867 C   0  0  0  0  0  0  0  0  0  0  0  0
   -4.5729   -0.6943    1.4261 C   0  0  0  0  0  0  0  0  0  0  0  0
    5.4633   -0.4954   -0.8613 C   0  0  0  0  0  0  0  0  0  0  0  0
    5.6833   -0.2659    0.4789 C   0  0  0  0  0  0  0  0  0  0  0  0
   -5.2397   -0.9758    0.2336 C   0  0  0  0  0  0  0  0  0  0  0  0
    1.9217   -2.1389    0.3682 H   0  0  0  0  0  0  0  0  0  0  0  0
    0.6005    3.0629   -0.1232 H   0  0  0  0  0  0  0  0  0  0  0  0
   -2.7369   -0.0395    2.3317 H   0  0  0  0  0  0  0  0  0  0  0  0
    3.6911   -1.0282   -1.9024 H   0  0  0  0  0  0  0  0  0  0  0  0
    4.2636   -0.3453    2.2079 H   0  0  0  0  0  0  0  0  0  0  0  0
   -5.1013   -1.0370   -1.9152 H   0  0  0  0  0  0  0  0  0  0  0  0
   -5.0844   -0.8176    2.3762 H   0  0  0  0  0  0  0  0  0  0  0  0
    6.1287   -0.4627   -1.7126 H   0  0  0  0  0  0  0  0  0  0  0  0
    6.6305    0.0044    0.9243 H   0  0  0  0  0  0  0  0  0  0  0  0
   -6.2702   -1.3179    0.2553 H   0  0  0  0  0  0  0  0  0  0  0  0
  1 11  2  0  0  0  0
  2 15  1  0  0  0  0
  3  9  2  0  0  0  0
  4 13  2  0  0  0  0
  5  9  1  0  0  0  0
  5 10  1  0  0  0  0
  5 11  1  0  0  0  0
  6 11  1  0  0  0  0
  6 13  1  0  0  0  0
  6 24  1  0  0  0  0
  7 14  1  0  0  0  0
  7 20  1  0  0  0  0
  7 26  1  0  0  0  0
  8  9  1  0  0  0  0
  8 12  2  0  0  0  0
  8 13  1  0  0  0  0
 10 15  1  0  0  0  0
 10 16  2  0  0  0  0
 12 14  1  0  0  0  0
 12 23  1  0  0  0  0
 14 17  2  0  0  0  0
 15 18  2  0  0  0  0
 16 19  1  0  0  0  0
 16 25  1  0  0  0  0
 17 21  1  0  0  0  0
 17 27  1  0  0  0  0
 18 22  1  0  0  0  0
 18 28  1  0  0  0  0
 19 22  2  0  0  0  0
 19 29  1  0  0  0  0
 20 21  2  0  0  0  0
 20 30  1  0  0  0  0
 21 31  1  0  0  0  0
 22 32  1  0  0  0  0
M  END
> <PUBCHEM_COMPOUND_CID>
5349528

> <PUBCHEM_CONFORMER_RMSD>
0.6

> <PUBCHEM_CONFORMER_DIVERSEORDER>
1
4
2
3

> <PUBCHEM_MMFF94_PARTIAL_CHARGES>
32
1 -0.38
10 0.12
11 0.5
12 -0.11
13 0.62
14 -0.2
15 0.19
16 -0.15
17 -0.15
18 -0.15
19 -0.15
2 -0.19
20 -0.3
21 -0.15
22 -0.15
23 0.15
24 0.37
25 0.15
26 0.27
27 0.15
28 0.15
29 0.15
3 -0.57
30 0.15
31 0.15
32 0.15
4 -0.57
5 -0.24
6 -0.49
7 0.03
8 0.03
9 0.62

> <PUBCHEM_EFFECTIVE_ROTOR_COUNT>
2.4

> <PUBCHEM_PHARMACOPHORE_FEATURES>
10
1 1 acceptor
1 3 acceptor
1 4 acceptor
1 6 donor
1 7 cation
1 7 donor
1 8 anion
5 7 14 17 20 21 rings
6 10 15 16 18 19 22 rings
6 5 6 8 9 11 13 rings

> <PUBCHEM_HEAVY_ATOM_COUNT>
22

> <PUBCHEM_ATOM_DEF_STEREO_COUNT>
0

> <PUBCHEM_ATOM_UDEF_STEREO_COUNT>
0

> <PUBCHEM_BOND_DEF_STEREO_COUNT>
0

> <PUBCHEM_BOND_UDEF_STEREO_COUNT>
1

> <PUBCHEM_ISOTOPIC_ATOM_COUNT>
0

> <PUBCHEM_COMPONENT_COUNT>
1

> <PUBCHEM_CACTVS_TAUTO_COUNT>
3

> <PUBCHEM_CONFORMER_ID>
0051A09800000001

> <PUBCHEM_MMFF94_ENERGY>
85.3635

> <PUBCHEM_FEATURE_SELFOVERLAP>
50.746

> <PUBCHEM_SHAPE_FINGERPRINT>
10366900 7 18334018293677058082
10670039 82 18188787041849761126
11089746 13 12251901512482571958
11315181 36 17603590716665612896
11543360 7 15647057074922285898
11552529 35 15553578829674828822
11796584 16 16588021307653207474
12107183 9 15622037516139858410
12236239 1 17775005726202838683
12553582 1 18411976962115366754
13009979 54 17559956696522889999
13140716 1 18265615570758214234
13288520 33 18272653437086286487
13583140 156 14692569875445741515
13862211 1 18409444795453127970
13911987 19 18187650227455605766
14840074 17 18202565098491231006
16752209 62 18335693906379439584
17349148 13 18334294266811036122
17357779 13 18337098012677063533
1813 80 18272101490770798460
18222031 100 18342170081237901082
19141452 34 17704070720013970383
19489759 90 14490189405840399070
200 152 18334290968218175931
20028762 73 18200598137005182303
20602899 9 15502664797095191649
21236236 1 18338800005073975520
21267235 1 18410582794198200474
21641784 216 18041296378324840676
22182313 1 17915472592320365285
23175994 123 18260550060960388837
23402539 116 18413386523036826055
23557571 272 18059582343294619556
23559900 14 16298385807270131095
23569943 247 17772205115094810974
25147074 1 18337690658013848180
283562 15 18338516339832515385
314173 85 18343866610410071481
34797466 226 16081381751516809278
34934 24 18193557762251522193
350125 39 18410579465556874320
7495541 125 17531250599241246950
8863177 126 17751938053714592107

> <PUBCHEM_SHAPE_MULTIPOLES>
422.64
11.8
2
1.2
7.13
1.92
-0.2
-4.81
0.16
-1.04
0.07
-0.83
-0.28
0

> <PUBCHEM_SHAPE_SELFOVERLAP>
924.362

> <PUBCHEM_SHAPE_VOLUME>
232.2

> <PUBCHEM_COORDINATE_TYPE>
2
5
10

$$$$
