410322
  -OEChem-02101610523D

 72 79  0     1  0  0  0  0  0999 V2000
   -0.9491   -1.5796   -0.1493 C   0  0  2  0  0  0  0  0  0  0  0  0
   -1.8438   -0.2947    0.1293 C   0  0  2  0  0  0  0  0  0  0  0  0
    0.3729   -1.2803   -0.7898 C   0  0  0  0  0  0  0  0  0  0  0  0
   -1.0476    0.8327    0.7905 C   0  0  0  0  0  0  0  0  0  0  0  0
   -1.7102   -2.6807   -0.9143 C   0  0  0  0  0  0  0  0  0  0  0  0
   -3.1401   -0.5570    0.8995 C   0  0  0  0  0  0  0  0  0  0  0  0
    1.5954   -1.5420   -0.1475 C   0  0  0  0  0  0  0  0  0  0  0  0
   -0.8348    2.0414    0.1401 C   0  0  0  0  0  0  0  0  0  0  0  0
    2.8264   -1.2425   -0.7877 C   0  0  0  0  0  0  0  0  0  0  0  0
   -0.0895    3.0617    0.7871 C   0  0  0  0  0  0  0  0  0  0  0  0
    0.3374   -0.7237   -2.0645 C   0  0  0  0  0  0  0  0  0  0  0  0
   -0.5688    0.5592    2.0530 C   0  0  0  0  0  0  0  0  0  0  0  0
   -1.3558   -3.9859   -0.6926 C   0  0  0  0  0  0  0  0  0  0  0  0
   -4.2223    0.2593    0.6641 C   0  0  0  0  0  0  0  0  0  0  0  0
   -2.7035   -2.3002   -1.7785 C   0  0  0  0  0  0  0  0  0  0  0  0
   -3.1733   -1.5985    1.7976 C   0  0  0  0  0  0  0  0  0  0  0  0
    1.5936   -2.1019    1.1325 C   0  0  0  0  0  0  0  0  0  0  0  0
   -1.3471    2.2587   -1.1414 C   0  0  0  0  0  0  0  0  0  0  0  0
    4.0614   -1.5228   -0.1023 C   0  0  0  0  0  0  0  0  0  0  0  0
    0.1274    4.3122    0.1071 C   0  0  0  0  0  0  0  0  0  0  0  0
    2.7475   -0.6761   -2.0847 C   0  0  0  0  0  0  0  0  0  0  0  0
    0.3979    2.7673    2.0851 C   0  0  0  0  0  0  0  0  0  0  0  0
    1.5251   -0.4211   -2.7121 C   0  0  0  0  0  0  0  0  0  0  0  0
    0.1627    1.5382    2.7072 C   0  0  0  0  0  0  0  0  0  0  0  0
    4.0181   -2.0916    1.1973 C   0  0  0  0  0  0  0  0  0  0  0  0
   -0.4091    4.4946   -1.1942 C   0  0  0  0  0  0  0  0  0  0  0  0
    2.7867   -2.3723    1.7947 C   0  0  0  0  0  0  0  0  0  0  0  0
   -1.1373    3.4667   -1.7984 C   0  0  0  0  0  0  0  0  0  0  0  0
   -2.0442   -4.9822   -1.3847 C   0  0  0  0  0  0  0  0  0  0  0  0
   -5.4038    0.0205    1.3660 C   0  0  0  0  0  0  0  0  0  0  0  0
   -3.3918   -3.2966   -2.4707 C   0  0  0  0  0  0  0  0  0  0  0  0
   -4.3549   -1.8373    2.4996 C   0  0  0  0  0  0  0  0  0  0  0  0
    5.3470   -1.2657   -0.6416 C   0  0  0  0  0  0  0  0  0  0  0  0
    0.8547    5.3996    0.6534 C   0  0  0  0  0  0  0  0  0  0  0  0
   -3.0623   -4.6376   -2.2738 C   0  0  0  0  0  0  0  0  0  0  0  0
   -5.4702   -1.0278    2.2838 C   0  0  0  0  0  0  0  0  0  0  0  0
    5.2054   -2.3767    1.8932 C   0  0  0  0  0  0  0  0  0  0  0  0
   -0.2149    5.7031   -1.8850 C   0  0  0  0  0  0  0  0  0  0  0  0
    6.5201   -1.5544    0.0612 C   0  0  0  0  0  0  0  0  0  0  0  0
    1.0403    6.5963   -0.0444 C   0  0  0  0  0  0  0  0  0  0  0  0
    6.4492   -2.1102    1.3291 C   0  0  0  0  0  0  0  0  0  0  0  0
    0.5051    6.7481   -1.3141 C   0  0  0  0  0  0  0  0  0  0  0  0
   -0.8035   -2.0238    0.8247 H   0  0  0  0  0  0  0  0  0  0  0  0
   -2.1880    0.0238   -0.8424 H   0  0  0  0  0  0  0  0  0  0  0  0
   -0.5956   -0.5131   -2.5773 H   0  0  0  0  0  0  0  0  0  0  0  0
   -0.7329   -0.3858    2.5580 H   0  0  0  0  0  0  0  0  0  0  0  0
   -0.5657   -4.2622   -0.0023 H   0  0  0  0  0  0  0  0  0  0  0  0
   -4.1810    1.0771   -0.0483 H   0  0  0  0  0  0  0  0  0  0  0  0
   -2.9843   -1.2820   -2.0067 H   0  0  0  0  0  0  0  0  0  0  0  0
   -2.3355   -2.2425    2.0279 H   0  0  0  0  0  0  0  0  0  0  0  0
    0.7173   -2.3719    1.7052 H   0  0  0  0  0  0  0  0  0  0  0  0
   -1.9292    1.5558   -1.7207 H   0  0  0  0  0  0  0  0  0  0  0  0
    3.6452   -0.4180   -2.6406 H   0  0  0  0  0  0  0  0  0  0  0  0
    0.9779    3.4957    2.6460 H   0  0  0  0  0  0  0  0  0  0  0  0
    1.5076    0.0150   -3.7066 H   0  0  0  0  0  0  0  0  0  0  0  0
    0.5551    1.3513    3.7026 H   0  0  0  0  0  0  0  0  0  0  0  0
    2.7412   -2.8095    2.7908 H   0  0  0  0  0  0  0  0  0  0  0  0
   -1.5541    3.5957   -2.7959 H   0  0  0  0  0  0  0  0  0  0  0  0
   -1.7872   -6.0263   -1.2316 H   0  0  0  0  0  0  0  0  0  0  0  0
   -6.2720    0.6510    1.1982 H   0  0  0  0  0  0  0  0  0  0  0  0
   -4.1791   -3.0289   -3.1696 H   0  0  0  0  0  0  0  0  0  0  0  0
   -4.4054   -2.6496    3.2189 H   0  0  0  0  0  0  0  0  0  0  0  0
    5.4644   -0.8309   -1.6308 H   0  0  0  0  0  0  0  0  0  0  0  0
    1.2970    5.3380    1.6443 H   0  0  0  0  0  0  0  0  0  0  0  0
   -3.5970   -5.4132   -2.8141 H   0  0  0  0  0  0  0  0  0  0  0  0
   -6.3896   -1.2128    2.8314 H   0  0  0  0  0  0  0  0  0  0  0  0
    5.1711   -2.8129    2.8899 H   0  0  0  0  0  0  0  0  0  0  0  0
   -0.6267    5.8420   -2.8831 H   0  0  0  0  0  0  0  0  0  0  0  0
    7.4863   -1.3425   -0.3874 H   0  0  0  0  0  0  0  0  0  0  0  0
    1.6041    7.4061    0.4096 H   0  0  0  0  0  0  0  0  0  0  0  0
    7.3575   -2.3362    1.8792 H   0  0  0  0  0  0  0  0  0  0  0  0
    0.6466    7.6756   -1.8602 H   0  0  0  0  0  0  0  0  0  0  0  0
  1  2  1  0  0  0  0
  1  3  1  0  0  0  0
  1  5  1  0  0  0  0
  1 43  1  0  0  0  0
  2  4  1  0  0  0  0
  2  6  1  0  0  0  0
  2 44  1  0  0  0  0
  3  7  1  0  0  0  0
  3 11  2  0  0  0  0
  4  8  1  0  0  0  0
  4 12  2  0  0  0  0
  5 13  2  0  0  0  0
  5 15  1  0  0  0  0
  6 14  2  0  0  0  0
  6 16  1  0  0  0  0
  7  9  2  0  0  0  0
  7 17  1  0  0  0  0
  8 10  2  0  0  0  0
  8 18  1  0  0  0  0
  9 19  1  0  0  0  0
  9 21  1  0  0  0  0
 10 20  1  0  0  0  0
 10 22  1  0  0  0  0
 11 23  1  0  0  0  0
 11 45  1  0  0  0  0
 12 24  1  0  0  0  0
 12 46  1  0  0  0  0
 13 29  1  0  0  0  0
 13 47  1  0  0  0  0
 14 30  1  0  0  0  0
 14 48  1  0  0  0  0
 15 31  2  0  0  0  0
 15 49  1  0  0  0  0
 16 32  2  0  0  0  0
 16 50  1  0  0  0  0
 17 27  2  0  0  0  0
 17 51  1  0  0  0  0
 18 28  2  0  0  0  0
 18 52  1  0  0  0  0
 19 25  1  0  0  0  0
 19 33  2  0  0  0  0
 20 26  1  0  0  0  0
 20 34  2  0  0  0  0
 21 23  2  0  0  0  0
 21 53  1  0  0  0  0
 22 24  2  0  0  0  0
 22 54  1  0  0  0  0
 23 55  1  0  0  0  0
 24 56  1  0  0  0  0
 25 27  1  0  0  0  0
 25 37  2  0  0  0  0
 26 28  1  0  0  0  0
 26 38  2  0  0  0  0
 27 57  1  0  0  0  0
 28 58  1  0  0  0  0
 29 35  2  0  0  0  0
 29 59  1  0  0  0  0
 30 36  2  0  0  0  0
 30 60  1  0  0  0  0
 31 35  1  0  0  0  0
 31 61  1  0  0  0  0
 32 36  1  0  0  0  0
 32 62  1  0  0  0  0
 33 39  1  0  0  0  0
 33 63  1  0  0  0  0
 34 40  1  0  0  0  0
 34 64  1  0  0  0  0
 35 65  1  0  0  0  0
 36 66  1  0  0  0  0
 37 41  1  0  0  0  0
 37 67  1  0  0  0  0
 38 42  1  0  0  0  0
 38 68  1  0  0  0  0
 39 41  2  0  0  0  0
 39 69  1  0  0  0  0
 40 42  2  0  0  0  0
 40 70  1  0  0  0  0
 41 71  1  0  0  0  0
 42 72  1  0  0  0  0
M  END
> <PUBCHEM_COMPOUND_CID>
410322

> <PUBCHEM_CONFORMER_RMSD>
1

> <PUBCHEM_CONFORMER_DIVERSEORDER>
2
7
8
4
3
5
1
6
9

> <PUBCHEM_MMFF94_PARTIAL_CHARGES>
62
1 0.29
11 -0.15
12 -0.15
13 -0.15
14 -0.15
15 -0.15
16 -0.15
17 -0.15
18 -0.15
2 0.29
21 -0.15
22 -0.15
23 -0.15
24 -0.15
27 -0.15
28 -0.15
29 -0.15
3 -0.14
30 -0.15
31 -0.15
32 -0.15
33 -0.15
34 -0.15
35 -0.15
36 -0.15
37 -0.15
38 -0.15
39 -0.15
4 -0.14
40 -0.15
41 -0.15
42 -0.15
45 0.15
46 0.15
47 0.15
48 0.15
49 0.15
5 -0.14
50 0.15
51 0.15
52 0.15
53 0.15
54 0.15
55 0.15
56 0.15
57 0.15
58 0.15
59 0.15
6 -0.14
60 0.15
61 0.15
62 0.15
63 0.15
64 0.15
65 0.15
66 0.15
67 0.15
68 0.15
69 0.15
70 0.15
71 0.15
72 0.15

> <PUBCHEM_EFFECTIVE_ROTOR_COUNT>
5

> <PUBCHEM_PHARMACOPHORE_FEATURES>
8
6 19 25 33 37 39 41 rings
6 20 26 34 38 40 42 rings
6 3 7 9 11 21 23 rings
6 4 8 10 12 22 24 rings
6 5 13 15 29 31 35 rings
6 6 14 16 30 32 36 rings
6 7 9 17 19 25 27 rings
6 8 10 18 20 26 28 rings

> <PUBCHEM_HEAVY_ATOM_COUNT>
42

> <PUBCHEM_ATOM_DEF_STEREO_COUNT>
0

> <PUBCHEM_ATOM_UDEF_STEREO_COUNT>
2

> <PUBCHEM_BOND_DEF_STEREO_COUNT>
0

> <PUBCHEM_BOND_UDEF_STEREO_COUNT>
0

> <PUBCHEM_ISOTOPIC_ATOM_COUNT>
0

> <PUBCHEM_COMPONENT_COUNT>
1

> <PUBCHEM_CACTVS_TAUTO_COUNT>
1

> <PUBCHEM_CONFORMER_ID>
000642D200000002

> <PUBCHEM_MMFF94_ENERGY>
175.2813

> <PUBCHEM_FEATURE_SELFOVERLAP>
40.703

> <PUBCHEM_SHAPE_FINGERPRINT>
10032420 55 17334727000291236308
10290309 65 17911794670571505186
10842077 115 16821386865365138297
10930396 42 18127668509933784802
11578080 2 17973973397061523359
11607047 403 17108207122418084395
11763715 3 18408599297377394758
12608794 3 18272370902139273535
12633046 712 17896608477914390491
12788726 201 17970642800062369715
133893 2 17980474882547218863
13540713 5 17770792513715495051
14068700 675 17822022982004893842
14415361 192 18337121107339258256
20600515 1 18131361807877073079
21033648 29 17488480585080185747
244849 19 17533768558832886847
469060 322 18129929092765367735
508180 173 18044624630276631591
57527306 92 16966963613689385293
9896288 288 18047756992864804778
9981440 41 17548677604959091298

> <PUBCHEM_SHAPE_MULTIPOLES>
864.34
9.39
9.29
2.84
9.32
18.63
0.01
-13.1
5.14
-0.81
-5.08
-1.47
-0.98
-2.12

> <PUBCHEM_SHAPE_SELFOVERLAP>
1987.408

> <PUBCHEM_SHAPE_VOLUME>
410.4

> <PUBCHEM_COORDINATE_TYPE>
2
5
10

$$$$
