3246414
  -OEChem-02101610523D

 51 54  0     0  0  0  0  0  0999 V2000
    6.5758    0.7837    0.7193 S   0  0  0  0  0  0  0  0  0  0  0  0
   -1.2926    1.5749   -0.3575 O   0  0  0  0  0  0  0  0  0  0  0  0
   -2.4850   -4.2947    0.0165 O   0  0  0  0  0  0  0  0  0  0  0  0
   -4.4622   -2.6829    0.2548 O   0  0  0  0  0  0  0  0  0  0  0  0
   -6.5414   -1.2081    0.5128 O   0  0  0  0  0  0  0  0  0  0  0  0
    7.0199    2.0761    0.2085 O   0  0  0  0  0  0  0  0  0  0  0  0
    6.7465    0.5029    2.1409 O   0  0  0  0  0  0  0  0  0  0  0  0
   -2.7799    3.7980    0.9027 O   0  5  0  0  0  0  0  0  0  0  0  0
   -3.1014    3.7275   -1.2677 O   0  0  0  0  0  0  0  0  0  0  0  0
    0.8244    0.1347   -0.6213 N   0  0  0  0  0  0  0  0  0  0  0  0
    7.3456   -0.4693   -0.1923 N   0  0  0  0  0  0  0  0  0  0  0  0
   -3.2617    3.2563   -0.1185 N   0  3  0  0  0  0  0  0  0  0  0  0
   -1.4565   -0.7633   -0.2543 C   0  0  0  0  0  0  0  0  0  0  0  0
   -2.2841   -1.8767   -0.0947 C   0  0  0  0  0  0  0  0  0  0  0  0
   -3.4729    0.7713   -0.0061 C   0  0  0  0  0  0  0  0  0  0  0  0
   -4.3007   -0.3421    0.1530 C   0  0  0  0  0  0  0  0  0  0  0  0
   -0.0814   -0.9380   -0.4519 C   0  0  0  0  0  0  0  0  0  0  0  0
   -2.0207    0.6014   -0.2159 C   0  0  0  0  0  0  0  0  0  0  0  0
   -3.7365   -1.7067    0.1148 C   0  0  0  0  0  0  0  0  0  0  0  0
   -1.7369   -3.1647   -0.1329 C   0  0  0  0  0  0  0  0  0  0  0  0
   -4.0201    2.0595    0.0328 C   0  0  0  0  0  0  0  0  0  0  0  0
    0.4598   -2.2235   -0.4893 C   0  0  0  0  0  0  0  0  0  0  0  0
   -5.6757   -0.1674    0.3506 C   0  0  0  0  0  0  0  0  0  0  0  0
    2.1854    0.2880   -0.3043 C   0  0  0  0  0  0  0  0  0  0  0  0
   -0.3661   -3.3343   -0.3302 C   0  0  0  0  0  0  0  0  0  0  0  0
    4.8861    0.5922    0.3248 C   0  0  0  0  0  0  0  0  0  0  0  0
   -5.3908    2.2290    0.2300 C   0  0  0  0  0  0  0  0  0  0  0  0
   -6.2167    1.1180    0.3885 C   0  0  0  0  0  0  0  0  0  0  0  0
    2.9922    1.1220   -1.0784 C   0  0  0  0  0  0  0  0  0  0  0  0
    2.7290   -0.3937    0.7845 C   0  0  0  0  0  0  0  0  0  0  0  0
    4.3425    1.2742   -0.7640 C   0  0  0  0  0  0  0  0  0  0  0  0
    4.0793   -0.2416    1.0990 C   0  0  0  0  0  0  0  0  0  0  0  0
    6.9418   -1.8704    0.0890 C   0  0  0  0  0  0  0  0  0  0  0  0
    7.5550   -0.2322   -1.6432 C   0  0  0  0  0  0  0  0  0  0  0  0
    0.4253    0.9323   -1.1070 H   0  0  0  0  0  0  0  0  0  0  0  0
    1.5160   -2.4006   -0.6730 H   0  0  0  0  0  0  0  0  0  0  0  0
    0.0647   -4.3315   -0.3679 H   0  0  0  0  0  0  0  0  0  0  0  0
   -5.8342    3.2217    0.2630 H   0  0  0  0  0  0  0  0  0  0  0  0
   -7.2831    1.2616    0.5414 H   0  0  0  0  0  0  0  0  0  0  0  0
    2.5807    1.6570   -1.9306 H   0  0  0  0  0  0  0  0  0  0  0  0
    2.1204   -1.0295    1.4216 H   0  0  0  0  0  0  0  0  0  0  0  0
    4.9537    1.9238   -1.3842 H   0  0  0  0  0  0  0  0  0  0  0  0
    4.4808   -0.7811    1.9522 H   0  0  0  0  0  0  0  0  0  0  0  0
   -3.4189   -4.0745    0.1485 H   0  0  0  0  0  0  0  0  0  0  0  0
    6.8169   -2.0282    1.1637 H   0  0  0  0  0  0  0  0  0  0  0  0
    7.7300   -2.5514   -0.2478 H   0  0  0  0  0  0  0  0  0  0  0  0
    6.0127   -2.1217   -0.4301 H   0  0  0  0  0  0  0  0  0  0  0  0
    8.0006    0.7517   -1.8119 H   0  0  0  0  0  0  0  0  0  0  0  0
    6.6105   -0.3075   -2.1889 H   0  0  0  0  0  0  0  0  0  0  0  0
    8.2530   -0.9751   -2.0425 H   0  0  0  0  0  0  0  0  0  0  0  0
   -6.0734   -2.0552    0.4696 H   0  0  0  0  0  0  0  0  0  0  0  0
  1  6  2  0  0  0  0
  1  7  2  0  0  0  0
  1 11  1  0  0  0  0
  1 26  1  0  0  0  0
  2 18  2  0  0  0  0
  3 20  1  0  0  0  0
  3 44  1  0  0  0  0
  4 19  2  0  0  0  0
  5 23  1  0  0  0  0
  5 51  1  0  0  0  0
  8 12  1  0  0  0  0
  9 12  2  0  0  0  0
 10 17  1  0  0  0  0
 10 24  1  0  0  0  0
 10 35  1  0  0  0  0
 11 33  1  0  0  0  0
 11 34  1  0  0  0  0
 12 21  1  0  0  0  0
 13 14  1  0  0  0  0
 13 17  2  0  0  0  0
 13 18  1  0  0  0  0
 14 19  1  0  0  0  0
 14 20  2  0  0  0  0
 15 16  1  0  0  0  0
 15 18  1  0  0  0  0
 15 21  2  0  0  0  0
 16 19  1  0  0  0  0
 16 23  2  0  0  0  0
 17 22  1  0  0  0  0
 20 25  1  0  0  0  0
 21 27  1  0  0  0  0
 22 25  2  0  0  0  0
 22 36  1  0  0  0  0
 23 28  1  0  0  0  0
 24 29  2  0  0  0  0
 24 30  1  0  0  0  0
 25 37  1  0  0  0  0
 26 31  2  0  0  0  0
 26 32  1  0  0  0  0
 27 28  2  0  0  0  0
 27 38  1  0  0  0  0
 28 39  1  0  0  0  0
 29 31  1  0  0  0  0
 29 40  1  0  0  0  0
 30 32  2  0  0  0  0
 30 41  1  0  0  0  0
 31 42  1  0  0  0  0
 32 43  1  0  0  0  0
 33 45  1  0  0  0  0
 33 46  1  0  0  0  0
 33 47  1  0  0  0  0
 34 48  1  0  0  0  0
 34 49  1  0  0  0  0
 34 50  1  0  0  0  0
M  CHG  2   8  -1  12   1
M  END
> <PUBCHEM_COMPOUND_CID>
3246414

> <PUBCHEM_CONFORMER_RMSD>
0.8

> <PUBCHEM_CONFORMER_DIVERSEORDER>
1
26
20
12
19
25
22
16
11
18
17
24
3
21
13
10
23
9
2
5
4
6
8
7
14
15

> <PUBCHEM_MMFF94_PARTIAL_CHARGES>
45
1 1.45
10 -0.6
11 -0.85
12 0.91
13 0.09
14 0.09
15 0.09
16 0.09
17 0.1
18 0.4
19 0.4
2 -0.57
20 0.08
21 0.13
22 -0.15
23 0.08
24 0.1
25 -0.15
26 -0.01
27 -0.15
28 -0.15
29 -0.15
3 -0.53
30 -0.15
31 -0.15
32 -0.15
33 0.36
34 0.36
35 0.4
36 0.15
37 0.15
38 0.15
39 0.15
4 -0.57
40 0.15
41 0.15
42 0.15
43 0.15
44 0.45
5 -0.53
51 0.45
6 -0.65
7 -0.65
8 -0.52
9 -0.52

> <PUBCHEM_EFFECTIVE_ROTOR_COUNT>
5

> <PUBCHEM_PHARMACOPHORE_FEATURES>
15
1 10 cation
1 10 donor
1 2 acceptor
1 3 donor
1 4 acceptor
1 5 donor
1 6 acceptor
1 7 acceptor
1 8 acceptor
1 8 anion
1 9 acceptor
6 13 14 15 16 18 19 rings
6 13 14 17 20 22 25 rings
6 15 16 21 23 27 28 rings
6 24 26 29 30 31 32 rings

> <PUBCHEM_HEAVY_ATOM_COUNT>
34

> <PUBCHEM_ATOM_DEF_STEREO_COUNT>
0

> <PUBCHEM_ATOM_UDEF_STEREO_COUNT>
0

> <PUBCHEM_BOND_DEF_STEREO_COUNT>
0

> <PUBCHEM_BOND_UDEF_STEREO_COUNT>
0

> <PUBCHEM_ISOTOPIC_ATOM_COUNT>
0

> <PUBCHEM_COMPONENT_COUNT>
1

> <PUBCHEM_CACTVS_TAUTO_COUNT>
92

> <PUBCHEM_CONFORMER_ID>
0031894E00000001

> <PUBCHEM_MMFF94_ENERGY>
122.2896

> <PUBCHEM_FEATURE_SELFOVERLAP>
76.269

> <PUBCHEM_SHAPE_FINGERPRINT>
100830 39 18410293609702205512
10165383 225 18272092661177796561
10319926 262 18341606062317560818
10411042 1 17763181745667839231
10580692 12 18411136949034422242
10670039 82 18410295791551042357
10939801 23 18263082270667843860
10951579 204 18197518259254508244
1100329 8 18194126437759916991
11273773 46 18058460799192179582
11524674 6 17704071802282614222
12107183 9 18191576468326692698
12128747 34 18059299739047413694
12236239 1 18113616828729459974
12838862 33 18410564073559558717
13140716 1 18194966468717023963
13782708 43 17488462060659650822
14117953 113 18334013857213634205
14856354 85 18336271240426748807
15021287 119 17458347450665439092
15042514 8 18265054807191286855
15131766 46 16155979363300981207
15183329 4 18412832369983626390
15230672 131 18265333916158417478
15326921 28 18119225295440644336
15328829 1 17603876632506678382
15439362 3 17616529563058943197
15927050 60 18412823577406006230
16110190 28 18334010635935108612
18608769 82 18342740745221903587
19301679 30 18121226642874221426
19611394 137 17970644089354834459
21756936 100 18271515463968469718
21859007 373 18272091574329388222
23522609 53 17676787409240563820
23559900 14 18272103681742183462
23569943 247 16734081485440195658
24771293 8 18271814502406331721
25019877 29 18130793377803748471
3383291 50 18335139838566800923
350125 39 18338238167474892318
3610482 184 17895773901617737190
4073 2 18188775076108258594
4144715 1 18268433606633893856
4197921 191 18260835925388511956
469060 322 18341067245949562585
5104073 3 18264217916008066387
5265222 85 18270124655681346310
59755656 215 18343308033414093086
59755656 520 18410569574230938854
6086070 43 16343411895619254362
6700243 42 17480338928582432926
7226269 152 18060139846891867337
7808743 9 18411415137401127251
9981440 41 18335708204805856627

> <PUBCHEM_SHAPE_MULTIPOLES>
641.66
19.59
3.99
1.03
28.66
0.7
-0.08
-5.21
-2.6
-5.84
0.29
1.67
-0.3
0.4

> <PUBCHEM_SHAPE_SELFOVERLAP>
1413.714

> <PUBCHEM_SHAPE_VOLUME>
346.1

> <PUBCHEM_COORDINATE_TYPE>
2
5
10

$$$$
