5339400
  -OEChem-02101610503D

 28 30  0     0  0  0  0  0  0999 V2000
    1.0000    2.0871   -1.4812 Cl  0  0  0  0  0  0  0  0  0  0  0  0
    0.4341   -3.1749   -0.2604 Cl  0  0  0  0  0  0  0  0  0  0  0  0
    4.0596    1.8910   -0.0600 S   0  0  0  0  0  0  0  0  0  0  0  0
    4.6626   -0.5458    0.8918 O   0  0  0  0  0  0  0  0  0  0  0  0
   -0.3809   -0.5321   -1.3646 O   0  0  0  0  0  0  0  0  0  0  0  0
   -2.6158   -0.2398   -1.1542 O   0  0  0  0  0  0  0  0  0  0  0  0
    6.2573    1.0905    1.1441 O   0  0  0  0  0  0  0  0  0  0  0  0
   -1.2546    0.0452    0.7198 O   0  0  0  0  0  0  0  0  0  0  0  0
    2.8896    0.5948   -0.2193 C   0  0  0  0  0  0  0  0  0  0  0  0
    3.3857   -0.5819    0.3316 C   0  0  0  0  0  0  0  0  0  0  0  0
    1.6291    0.6328   -0.7928 C   0  0  0  0  0  0  0  0  0  0  0  0
    0.8666   -0.5380   -0.8056 C   0  0  0  0  0  0  0  0  0  0  0  0
    2.6405   -1.7513    0.3264 C   0  0  0  0  0  0  0  0  0  0  0  0
    1.3694   -1.7233   -0.2492 C   0  0  0  0  0  0  0  0  0  0  0  0
    5.1501    0.7524    0.7460 C   0  0  0  0  0  0  0  0  0  0  0  0
   -3.7114    0.0677   -0.3436 C   0  0  0  0  0  0  0  0  0  0  0  0
   -1.4087   -0.2130   -0.4680 C   0  0  0  0  0  0  0  0  0  0  0  0
   -4.1022    1.3833   -0.2307 C   0  0  0  0  0  0  0  0  0  0  0  0
   -4.3567   -0.9571    0.3119 C   0  0  0  0  0  0  0  0  0  0  0  0
   -5.1952    1.6900    0.5797 C   0  0  0  0  0  0  0  0  0  0  0  0
   -5.4499   -0.6505    1.1222 C   0  0  0  0  0  0  0  0  0  0  0  0
   -5.8692    0.6731    1.2561 C   0  0  0  0  0  0  0  0  0  0  0  0
    3.0440   -2.6606    0.7613 H   0  0  0  0  0  0  0  0  0  0  0  0
   -3.5778    2.1745   -0.7574 H   0  0  0  0  0  0  0  0  0  0  0  0
   -4.0303   -1.9870    0.2074 H   0  0  0  0  0  0  0  0  0  0  0  0
   -5.5216    2.7206    0.6841 H   0  0  0  0  0  0  0  0  0  0  0  0
   -5.9745   -1.4423    1.6488 H   0  0  0  0  0  0  0  0  0  0  0  0
   -6.7203    0.9120    1.8870 H   0  0  0  0  0  0  0  0  0  0  0  0
  1 11  1  0  0  0  0
  2 14  1  0  0  0  0
  3  9  1  0  0  0  0
  3 15  1  0  0  0  0
  4 10  1  0  0  0  0
  4 15  1  0  0  0  0
  5 12  1  0  0  0  0
  5 17  1  0  0  0  0
  6 16  1  0  0  0  0
  6 17  1  0  0  0  0
  7 15  2  0  0  0  0
  8 17  2  0  0  0  0
  9 10  1  0  0  0  0
  9 11  2  0  0  0  0
 10 13  2  0  0  0  0
 11 12  1  0  0  0  0
 12 14  2  0  0  0  0
 13 14  1  0  0  0  0
 13 23  1  0  0  0  0
 16 18  2  0  0  0  0
 16 19  1  0  0  0  0
 18 20  1  0  0  0  0
 18 24  1  0  0  0  0
 19 21  2  0  0  0  0
 19 25  1  0  0  0  0
 20 22  2  0  0  0  0
 20 26  1  0  0  0  0
 21 22  1  0  0  0  0
 21 27  1  0  0  0  0
 22 28  1  0  0  0  0
M  END
> <PUBCHEM_COMPOUND_CID>
5339400

> <PUBCHEM_CONFORMER_RMSD>
0.6

> <PUBCHEM_CONFORMER_DIVERSEORDER>
1
85
13
37
61
92
69
70
25
73
41
18
60
86
68
78
44
48
53
47
43
21
74
84
27
15
4
89
29
93
12
82
17
62
80
5
94
24
87
91
11
2
45
77
10
64
63
26
40
34
9
54
3
35
46
7
14
16
8
28
59
71
90
66
81
39
20
23
6
55
49
36
67
79
56
42
72
65
32
58
33
76
50
83
19
38
30
22
52
57
31
75
51
88
95

> <PUBCHEM_MMFF94_PARTIAL_CHARGES>
28
1 -0.18
10 0.08
11 0.18
12 0.08
13 -0.15
14 0.18
15 0.86
16 0.08
17 0.87
18 -0.15
19 -0.15
2 -0.18
20 -0.15
21 -0.15
22 -0.15
23 0.15
24 0.15
25 0.15
26 0.15
27 0.15
28 0.15
3 -0.24
4 -0.23
5 -0.23
6 -0.23
7 -0.57
8 -0.57
9 0.1

> <PUBCHEM_EFFECTIVE_ROTOR_COUNT>
4

> <PUBCHEM_PHARMACOPHORE_FEATURES>
3
5 3 4 9 10 15 rings
6 16 18 19 20 21 22 rings
6 9 10 11 12 13 14 rings

> <PUBCHEM_HEAVY_ATOM_COUNT>
22

> <PUBCHEM_ATOM_DEF_STEREO_COUNT>
0

> <PUBCHEM_ATOM_UDEF_STEREO_COUNT>
0

> <PUBCHEM_BOND_DEF_STEREO_COUNT>
0

> <PUBCHEM_BOND_UDEF_STEREO_COUNT>
0

> <PUBCHEM_ISOTOPIC_ATOM_COUNT>
0

> <PUBCHEM_COMPONENT_COUNT>
1

> <PUBCHEM_CACTVS_TAUTO_COUNT>
1

> <PUBCHEM_CONFORMER_ID>
0051790800000001

> <PUBCHEM_MMFF94_ENERGY>
67.0102

> <PUBCHEM_FEATURE_SELFOVERLAP>
15.298

> <PUBCHEM_SHAPE_FINGERPRINT>
10354089 29 18410295813342331152
10493431 412 18411132576109011350
11545043 162 15357971274756433669
11724838 91 18341895225512623391
12236239 1 17917708002565202742
12507557 5 18260266348274153117
12596602 18 18342458140531306915
12633257 1 17458067100779943681
12670543 26 11671789273193690784
12788726 201 16414924024441283841
12892183 10 18336830784470558661
13140716 1 18044928207444696336
13631057 29 17773583005596978935
13668630 136 12035448333160019185
14341114 176 18336553733130788683
14341114 328 18130787858591423955
14528608 73 11887949939173291993
14849402 71 18190184675305453252
15081414 286 18411138009469585356
15188451 53 16950571030039697131
15210252 30 13973965402286376994
15475509 8 18341910584574533644
15475509 84 17983851190798739224
1601671 61 17060618893098773840
17349148 13 13767933399177975019
1813 80 16371017278001277391
18222031 100 10809338958068050316
18785283 64 17677341643893153020
19377110 9 18341335591279404575
19784866 240 12107786294035872741
19784866 9 18342458127472246753
20739085 24 18261118430819484396
21033648 29 18272075124040447552
21065199 12 18262523589842628471
21637258 2 13767916936515757248
21756936 100 18059565953599353766
21859007 373 17242163545356596253
221357 26 10159699071438904843
22182313 1 18043796612057811726
22289505 5 11023830548111375354
23402655 69 11527955547209721687
23559900 14 18125163732220021383
2838139 119 16271921636532684392
2916195 48 17775278417428097312
29717793 49 11458423531301751995
3004659 81 10375875169256709512
312425 54 17603869962354071353
3421961 26 18120376462587140374
3472631 163 17060335257737955216
351380 3 12757150181830314689
4340502 62 18412267241696003978
465052 167 17095242531980420104
474 4 18412545409505347787
5104073 3 18262808367633392163
542803 24 17846780706580679785
5924683 9 18337955697020843347
633830 44 18201718444404715158
7495541 125 16081092601417249052
8272917 22 18342461383173891454
960060 61 10879991371803078682

> <PUBCHEM_SHAPE_MULTIPOLES>
430.99
13.58
2.32
1.19
6.62
0.96
-0.06
-5.27
7.24
-1
-0.33
0.07
-0.24
-0.04

> <PUBCHEM_SHAPE_SELFOVERLAP>
917.774

> <PUBCHEM_SHAPE_VOLUME>
241.5

> <PUBCHEM_COORDINATE_TYPE>
2
5
10

$$$$
