803344
  -OEChem-02101610503D

 35 36  0     0  0  0  0  0  0999 V2000
    2.2764    1.9092    0.2576 S   0  0  0  0  0  0  0  0  0  0  0  0
    3.0237   -2.4364   -1.4927 O   0  0  0  0  0  0  0  0  0  0  0  0
   -0.4784    1.8962    0.4568 O   0  0  0  0  0  0  0  0  0  0  0  0
   -6.4423    0.0325   -0.4096 O   0  5  0  0  0  0  0  0  0  0  0  0
   -5.2796    1.8580   -0.7764 O   0  0  0  0  0  0  0  0  0  0  0  0
    0.6344   -0.1342    0.0767 N   0  0  0  0  0  0  0  0  0  0  0  0
    3.1688   -2.7291    0.7631 N   0  0  0  0  0  0  0  0  0  0  0  0
   -5.3524    0.6537   -0.4319 N   0  3  0  0  0  0  0  0  0  0  0  0
    4.2669    0.3293   -0.1196 C   0  0  0  0  0  0  0  0  0  0  0  0
    3.1009   -0.4888   -0.1546 C   0  0  0  0  0  0  0  0  0  0  0  0
    1.9955    0.2560    0.0354 C   0  0  0  0  0  0  0  0  0  0  0  0
    3.9622    1.6552    0.0971 C   0  0  0  0  0  0  0  0  0  0  0  0
    5.6485   -0.1837   -0.2964 C   0  0  0  0  0  0  0  0  0  0  0  0
    4.8767    2.8146    0.1994 C   0  0  0  0  0  0  0  0  0  0  0  0
    3.0859   -1.9153   -0.3640 C   0  0  0  0  0  0  0  0  0  0  0  0
   -0.4978    0.6678    0.2772 C   0  0  0  0  0  0  0  0  0  0  0  0
   -1.7742   -0.0289    0.2954 C   0  0  0  0  0  0  0  0  0  0  0  0
   -2.9406    0.6414   -0.0733 C   0  0  0  0  0  0  0  0  0  0  0  0
   -1.8319   -1.3678    0.6823 C   0  0  0  0  0  0  0  0  0  0  0  0
   -4.1647   -0.0272   -0.0550 C   0  0  0  0  0  0  0  0  0  0  0  0
   -3.0559   -2.0364    0.7007 C   0  0  0  0  0  0  0  0  0  0  0  0
   -4.2223   -1.3660    0.3320 C   0  0  0  0  0  0  0  0  0  0  0  0
    5.6723   -1.0586   -0.9541 H   0  0  0  0  0  0  0  0  0  0  0  0
    6.3053    0.5691   -0.7446 H   0  0  0  0  0  0  0  0  0  0  0  0
    6.0703   -0.4727    0.6718 H   0  0  0  0  0  0  0  0  0  0  0  0
    0.5063   -1.1263   -0.1009 H   0  0  0  0  0  0  0  0  0  0  0  0
    5.2565    3.0861   -0.7912 H   0  0  0  0  0  0  0  0  0  0  0  0
    4.3918    3.6986    0.6269 H   0  0  0  0  0  0  0  0  0  0  0  0
    5.7335    2.5757    0.8385 H   0  0  0  0  0  0  0  0  0  0  0  0
   -2.8792    1.6835   -0.3787 H   0  0  0  0  0  0  0  0  0  0  0  0
   -0.9577   -1.9204    1.0138 H   0  0  0  0  0  0  0  0  0  0  0  0
   -3.1022   -3.0766    1.0104 H   0  0  0  0  0  0  0  0  0  0  0  0
   -5.1580   -1.9185    0.3600 H   0  0  0  0  0  0  0  0  0  0  0  0
    3.2312   -2.3465    1.7014 H   0  0  0  0  0  0  0  0  0  0  0  0
    3.1706   -3.7400    0.6774 H   0  0  0  0  0  0  0  0  0  0  0  0
  1 11  1  0  0  0  0
  1 12  1  0  0  0  0
  2 15  2  0  0  0  0
  3 16  2  0  0  0  0
  4  8  1  0  0  0  0
  5  8  2  0  0  0  0
  6 11  1  0  0  0  0
  6 16  1  0  0  0  0
  6 26  1  0  0  0  0
  7 15  1  0  0  0  0
  7 34  1  0  0  0  0
  7 35  1  0  0  0  0
  8 20  1  0  0  0  0
  9 10  1  0  0  0  0
  9 12  2  0  0  0  0
  9 13  1  0  0  0  0
 10 11  2  0  0  0  0
 10 15  1  0  0  0  0
 12 14  1  0  0  0  0
 13 23  1  0  0  0  0
 13 24  1  0  0  0  0
 13 25  1  0  0  0  0
 14 27  1  0  0  0  0
 14 28  1  0  0  0  0
 14 29  1  0  0  0  0
 16 17  1  0  0  0  0
 17 18  2  0  0  0  0
 17 19  1  0  0  0  0
 18 20  1  0  0  0  0
 18 30  1  0  0  0  0
 19 21  2  0  0  0  0
 19 31  1  0  0  0  0
 20 22  2  0  0  0  0
 21 22  1  0  0  0  0
 21 32  1  0  0  0  0
 22 33  1  0  0  0  0
M  CHG  2   4  -1   8   1
M  END
> <PUBCHEM_COMPOUND_CID>
803344

> <PUBCHEM_CONFORMER_RMSD>
0.8

> <PUBCHEM_CONFORMER_DIVERSEORDER>
1
19
13
24
6
5
22
20
7
17
8
11
21
4
15
23
18
10
16
3
12
2
9
14

> <PUBCHEM_MMFF94_PARTIAL_CHARGES>
29
1 -0.08
10 -0.09
11 0.1
12 -0.14
13 0.18
14 0.18
15 0.72
16 0.54
17 0.09
18 -0.15
19 -0.15
2 -0.57
20 0.13
21 -0.15
22 -0.15
26 0.37
3 -0.57
30 0.15
31 0.15
32 0.15
33 0.15
34 0.37
35 0.37
4 -0.52
5 -0.52
6 -0.49
7 -0.8
8 0.91
9 -0.18

> <PUBCHEM_EFFECTIVE_ROTOR_COUNT>
5

> <PUBCHEM_PHARMACOPHORE_FEATURES>
9
1 2 acceptor
1 3 acceptor
1 4 acceptor
1 4 anion
1 5 acceptor
1 6 donor
1 7 donor
5 1 9 10 11 12 rings
6 17 18 19 20 21 22 rings

> <PUBCHEM_HEAVY_ATOM_COUNT>
22

> <PUBCHEM_ATOM_DEF_STEREO_COUNT>
0

> <PUBCHEM_ATOM_UDEF_STEREO_COUNT>
0

> <PUBCHEM_BOND_DEF_STEREO_COUNT>
0

> <PUBCHEM_BOND_UDEF_STEREO_COUNT>
0

> <PUBCHEM_ISOTOPIC_ATOM_COUNT>
0

> <PUBCHEM_COMPONENT_COUNT>
1

> <PUBCHEM_CACTVS_TAUTO_COUNT>
7

> <PUBCHEM_CONFORMER_ID>
000C421000000001

> <PUBCHEM_MMFF94_ENERGY>
71.5039

> <PUBCHEM_FEATURE_SELFOVERLAP>
45.753

> <PUBCHEM_SHAPE_FINGERPRINT>
10366900 7 13470416594672382478
10595046 47 18343016718577343901
10835480 77 18410851100963937273
11719270 70 18342453756129456242
12107183 9 17766287465950312945
12236239 1 17060622204639826117
12730499 353 18336552693669646962
12788726 201 17988081076233607481
13533116 47 18131069320894002027
13544592 145 18334298621797364367
13583140 156 18129662053384767325
13668630 136 17131836482155010343
14528608 73 18270963552402895308
14573314 32 18335138683314919853
14790565 3 18121782721533272145
15183329 4 18341892949116912721
15196674 1 18337955700603024090
15375358 24 18334859462858487946
15961568 22 17532093967937356348
17844677 252 18409174302961020101
18222031 100 14692569931523098097
200 152 17989489631942782368
20157964 124 18412260627899678607
20645477 56 18113899360247182421
20645477 70 18272090478638084214
21267235 1 18341624715339434418
21279426 13 18265613174556716669
21285901 2 18261391096554598461
21315764 371 15554149433255333319
2215653 11 18413387614428037415
22289505 5 18411134714986984940
23557571 272 17240759558437036372
23559900 14 18410854378113206880
239999 70 18343872117328382390
26918003 58 18411136948211411544
2871803 45 18411142424737721504
29717793 49 17560809818371594748
300161 21 18334851744860116713
3004659 81 18333449824806581978
335352 9 18410575094070782334
33824 294 18411983589814147106
34934 24 18340201989805051810
3545911 37 18407761447456201217
4073 2 18114466763564718923
4214541 1 18408041831753928809
495365 180 18060126678717232128
5104073 3 18334579048722674467
5283173 99 18335416825313060821
542803 24 15936406766658981280
543358 83 18337393738323457842
59755656 215 18408042888563550278
8272917 22 18343586230992821894
9709674 26 18336835272284628202
9995097 60 18409166631769380929

> <PUBCHEM_SHAPE_MULTIPOLES>
418.18
13.61
2.7
0.81
9.21
0.49
-0.08
-2.87
-2.02
-2.48
0.04
-0.04
0.26
1.31

> <PUBCHEM_SHAPE_SELFOVERLAP>
888.358

> <PUBCHEM_SHAPE_VOLUME>
235.6

> <PUBCHEM_COORDINATE_TYPE>
2
5
10

$$$$
