5348087
  -OEChem-02101610513D

 46 49  0     0  0  0  0  0  0999 V2000
   -6.2097   -1.7291    1.7108 Cl  0  0  0  0  0  0  0  0  0  0  0  0
   -8.6123    3.0044    0.8667 Cl  0  0  0  0  0  0  0  0  0  0  0  0
    8.0624    0.7794    0.3162 S   0  0  0  0  0  0  0  0  0  0  0  0
   -3.0798   -0.6477    0.2795 O   0  0  0  0  0  0  0  0  0  0  0  0
    1.9149   -1.8668    1.3696 O   0  0  0  0  0  0  0  0  0  0  0  0
    8.7618   -0.4945    0.2218 O   0  0  0  0  0  0  0  0  0  0  0  0
    8.4417    1.8791   -0.5600 O   0  0  0  0  0  0  0  0  0  0  0  0
    2.2521   -0.2241   -0.3243 N   0  0  0  0  0  0  0  0  0  0  0  0
    1.4669    0.4293   -1.2723 N   0  0  0  0  0  0  0  0  0  0  0  0
    8.1224    1.3226    1.9350 N   0  0  0  0  0  0  0  0  0  0  0  0
    0.1704   -1.0242   -0.0731 C   0  0  0  0  0  0  0  0  0  0  0  0
    3.6099    0.0105   -0.1750 C   0  0  0  0  0  0  0  0  0  0  0  0
    0.2517   -0.0251   -1.1380 C   0  0  0  0  0  0  0  0  0  0  0  0
    1.5399   -1.1438    0.4669 C   0  0  0  0  0  0  0  0  0  0  0  0
   -0.8951   -1.7020    0.3468 C   0  0  0  0  0  0  0  0  0  0  0  0
   -2.2181   -1.5676   -0.1959 C   0  0  0  0  0  0  0  0  0  0  0  0
    6.3522    0.4841    0.1273 C   0  0  0  0  0  0  0  0  0  0  0  0
    4.4573   -1.0074    0.2771 C   0  0  0  0  0  0  0  0  0  0  0  0
    4.1473    1.2677   -0.4744 C   0  0  0  0  0  0  0  0  0  0  0  0
    5.8237   -0.7714    0.4279 C   0  0  0  0  0  0  0  0  0  0  0  0
    5.5138    1.5037   -0.3238 C   0  0  0  0  0  0  0  0  0  0  0  0
   -4.2177   -0.7947   -0.4488 C   0  0  0  0  0  0  0  0  0  0  0  0
   -0.9081    0.4142   -1.9643 C   0  0  0  0  0  0  0  0  0  0  0  0
   -2.7597   -2.3037   -1.2059 C   0  0  0  0  0  0  0  0  0  0  0  0
   -5.2878    0.0988   -0.1063 C   0  0  0  0  0  0  0  0  0  0  0  0
   -4.0716   -1.8005   -1.3757 C   0  0  0  0  0  0  0  0  0  0  0  0
   -6.2489   -0.2231    0.8606 C   0  0  0  0  0  0  0  0  0  0  0  0
   -5.3677    1.3311   -0.7660 C   0  0  0  0  0  0  0  0  0  0  0  0
   -7.2739    0.6737    1.1622 C   0  0  0  0  0  0  0  0  0  0  0  0
   -6.3925    2.2278   -0.4644 C   0  0  0  0  0  0  0  0  0  0  0  0
   -7.3456    1.8992    0.4998 C   0  0  0  0  0  0  0  0  0  0  0  0
   -0.7860   -2.4174    1.1581 H   0  0  0  0  0  0  0  0  0  0  0  0
    4.1005   -2.0117    0.4824 H   0  0  0  0  0  0  0  0  0  0  0  0
    3.5130    2.0805   -0.8197 H   0  0  0  0  0  0  0  0  0  0  0  0
    6.4587   -1.5805    0.7778 H   0  0  0  0  0  0  0  0  0  0  0  0
    5.9026    2.4912   -0.5560 H   0  0  0  0  0  0  0  0  0  0  0  0
   -1.2888   -0.4113   -2.5675 H   0  0  0  0  0  0  0  0  0  0  0  0
   -0.5723    1.1925   -2.6583 H   0  0  0  0  0  0  0  0  0  0  0  0
   -1.6869    0.8557   -1.3409 H   0  0  0  0  0  0  0  0  0  0  0  0
   -2.2889   -3.1027   -1.7614 H   0  0  0  0  0  0  0  0  0  0  0  0
   -4.8146   -2.1329   -2.0869 H   0  0  0  0  0  0  0  0  0  0  0  0
   -4.6339    1.6062   -1.5207 H   0  0  0  0  0  0  0  0  0  0  0  0
   -8.0193    0.4195    1.9129 H   0  0  0  0  0  0  0  0  0  0  0  0
   -6.4364    3.1789   -0.9889 H   0  0  0  0  0  0  0  0  0  0  0  0
    8.5416    0.6960    2.6329 H   0  0  0  0  0  0  0  0  0  0  0  0
    8.3210    2.3174    2.0971 H   0  0  0  0  0  0  0  0  0  0  0  0
  1 27  1  0  0  0  0
  2 31  1  0  0  0  0
  3  6  2  0  0  0  0
  3  7  2  0  0  0  0
  3 10  1  0  0  0  0
  3 17  1  0  0  0  0
  4 16  1  0  0  0  0
  4 22  1  0  0  0  0
  5 14  2  0  0  0  0
  8  9  1  0  0  0  0
  8 12  1  0  0  0  0
  8 14  1  0  0  0  0
  9 13  2  0  0  0  0
 10 45  1  0  0  0  0
 10 46  1  0  0  0  0
 11 13  1  0  0  0  0
 11 14  1  0  0  0  0
 11 15  2  0  0  0  0
 12 18  2  0  0  0  0
 12 19  1  0  0  0  0
 13 23  1  0  0  0  0
 15 16  1  0  0  0  0
 15 32  1  0  0  0  0
 16 24  2  0  0  0  0
 17 20  2  0  0  0  0
 17 21  1  0  0  0  0
 18 20  1  0  0  0  0
 18 33  1  0  0  0  0
 19 21  2  0  0  0  0
 19 34  1  0  0  0  0
 20 35  1  0  0  0  0
 21 36  1  0  0  0  0
 22 25  1  0  0  0  0
 22 26  2  0  0  0  0
 23 37  1  0  0  0  0
 23 38  1  0  0  0  0
 23 39  1  0  0  0  0
 24 26  1  0  0  0  0
 24 40  1  0  0  0  0
 25 27  2  0  0  0  0
 25 28  1  0  0  0  0
 26 41  1  0  0  0  0
 27 29  1  0  0  0  0
 28 30  2  0  0  0  0
 28 42  1  0  0  0  0
 29 31  2  0  0  0  0
 29 43  1  0  0  0  0
 30 31  1  0  0  0  0
 30 44  1  0  0  0  0
M  END
> <PUBCHEM_COMPOUND_CID>
5348087

> <PUBCHEM_CONFORMER_RMSD>
0.8

> <PUBCHEM_CONFORMER_DIVERSEORDER>
3
1
16
8
14
9
7
13
12
15
6
10
2
11
4
5

> <PUBCHEM_MMFF94_PARTIAL_CHARGES>
43
1 -0.18
10 -0.98
11 0.03
12 0.12
13 0.37
14 0.62
15 -0.11
16 0.09
17 -0.01
18 -0.15
19 -0.15
2 -0.18
20 -0.15
21 -0.15
22 0.09
23 0.06
24 -0.15
25 0.05
26 -0.15
27 0.18
28 -0.15
29 -0.15
3 1.45
30 -0.15
31 0.18
32 0.15
33 0.15
34 0.15
35 0.15
36 0.15
4 -0.28
40 0.15
41 0.15
42 0.15
43 0.15
44 0.15
45 0.42
46 0.42
5 -0.57
6 -0.65
7 -0.65
8 -0.11
9 -0.51

> <PUBCHEM_EFFECTIVE_ROTOR_COUNT>
4.2

> <PUBCHEM_PHARMACOPHORE_FEATURES>
10
1 10 donor
1 4 acceptor
1 5 acceptor
1 6 acceptor
1 7 acceptor
1 9 acceptor
5 4 16 22 24 26 rings
5 8 9 11 13 14 rings
6 12 17 18 19 20 21 rings
6 25 27 28 29 30 31 rings

> <PUBCHEM_HEAVY_ATOM_COUNT>
31

> <PUBCHEM_ATOM_DEF_STEREO_COUNT>
0

> <PUBCHEM_ATOM_UDEF_STEREO_COUNT>
0

> <PUBCHEM_BOND_DEF_STEREO_COUNT>
1

> <PUBCHEM_BOND_UDEF_STEREO_COUNT>
0

> <PUBCHEM_ISOTOPIC_ATOM_COUNT>
0

> <PUBCHEM_COMPONENT_COUNT>
1

> <PUBCHEM_CACTVS_TAUTO_COUNT>
1

> <PUBCHEM_CONFORMER_ID>
00519AF700000003

> <PUBCHEM_MMFF94_ENERGY>
83.546

> <PUBCHEM_FEATURE_SELFOVERLAP>
50.767

> <PUBCHEM_SHAPE_FINGERPRINT>
10 15 18334577936727044483
10100884 174 17316208222872973003
11135609 99 8718532913818592905
11135926 11 17894901932551301562
11181472 205 17489036976887083720
11200772 48 14836397043637383109
11456790 92 18187356650226529688
11475781 23 17775012279848276764
11578821 258 18130223856561868328
12082328 90 18272646891635866423
12236239 1 18409167714613017835
12539765 74 18340775918660558342
1361 4 8285936674036446432
13668630 136 11169903975476604880
13673619 4 13334740145808513079
13782708 43 13117994505066898891
14251764 18 18187364363449384678
14394314 77 18334858303613417877
14444916 359 16877661245486495002
14849402 71 17605286257405163884
15142383 8 17561081415503552252
15183329 4 18261662753563156662
15198563 99 15051472504667254816
15439362 3 18200597986422643631
15461852 350 17917987305058673463
15604295 49 18058440066989532720
1577012 14 18413383237450641822
15979999 66 11959728274607193642
16110190 28 18186806881358603285
16989713 51 17273967116880085607
18603816 31 13551486882310340137
19302320 297 18259993677411154877
19315958 150 18271531900798119374
20105231 36 16225764104550450138
2026 5 8142086464178979361
20505436 4 18412258411887458099
20721686 146 18270964532183265141
20982279 24 14852159552255047888
21033648 29 18342730824279557803
21130935 74 18113618979976235594
21150785 3 11383833770812146428
21521239 73 11023820665391412917
21756936 100 18408603682692003739
21781055 127 18115604668806993742
21792965 68 17775013345395896017
21927370 108 14634868622091052423
22393880 68 11959728223599698383
23389318 12 11095878290132389570
23576562 1 15122926526197162073
24771293 8 18186803599249124174
306946 40 16558736933177835080
3178227 256 16805322206678473168
3633792 109 17846504699715054854
3711267 37 18342470252266131336
4073 2 18187087282098267218
4093350 32 18341894061603522506
4330586 98 10519399941153230061
4339292 15 12612754653213246481
44802255 64 17489869337270088103
4516262 110 18261664888488989503
504843 32 17274819194893313071
5104073 3 17895186757380366378
5385378 56 17676485008513449338
54039377 194 8934990483099265329
563151 97 14332867962603509271
57527295 17 13829860055003826143
5758199 1 18113617893791971154
58083652 198 16878217671009540717
6009941 240 17703791452988235358
636775 72 18342178813867335001
636775 8 7853569127996940041
7226269 152 18131070420606161361
9896288 288 12468901076048801279
9953998 17 17240488005541492107
9962374 69 13262690286595306258
999808 66 13406792229392642457

> <PUBCHEM_SHAPE_MULTIPOLES>
607.13
28.34
2.45
1.37
21.19
0.6
0.01
19.96
9.7
-4.13
0.17
-0.77
-0.16
-0.56

> <PUBCHEM_SHAPE_SELFOVERLAP>
1310.248

> <PUBCHEM_SHAPE_VOLUME>
337.5

> <PUBCHEM_COORDINATE_TYPE>
2
5
10

$$$$
