2251798
  -OEChem-02101610503D

 33 35  0     0  0  0  0  0  0999 V2000
    6.1907    1.2326   -1.0911 Cl  0  0  0  0  0  0  0  0  0  0  0  0
    0.6563   -3.2354   -0.1491 S   0  0  0  0  0  0  0  0  0  0  0  0
    3.5953   -2.8447    0.1941 S   0  0  0  0  0  0  0  0  0  0  0  0
   -0.3556    0.4260    0.1096 O   0  0  0  0  0  0  0  0  0  0  0  0
   -4.5585    1.3197   -2.1071 O   0  0  0  0  0  0  0  0  0  0  0  0
   -5.4886    2.1288    0.3842 O   0  0  0  0  0  0  0  0  0  0  0  0
    1.6370   -0.8530    0.0924 N   0  0  0  0  0  0  0  0  0  0  0  0
    2.5194    0.2771    0.1616 C   0  0  0  0  0  0  0  0  0  0  0  0
   -0.4527   -1.9403   -0.0148 C   0  0  0  0  0  0  0  0  0  0  0  0
    0.2490   -0.6393    0.0871 C   0  0  0  0  0  0  0  0  0  0  0  0
   -2.7433   -0.9718    0.0876 C   0  0  0  0  0  0  0  0  0  0  0  0
   -1.7816   -2.0584   -0.0117 C   0  0  0  0  0  0  0  0  0  0  0  0
    2.0650   -2.1833    0.0276 C   0  0  0  0  0  0  0  0  0  0  0  0
    3.7767    0.2099   -0.4303 C   0  0  0  0  0  0  0  0  0  0  0  0
    2.1104    1.4315    0.8219 C   0  0  0  0  0  0  0  0  0  0  0  0
   -3.1989   -0.3358   -1.0673 C   0  0  0  0  0  0  0  0  0  0  0  0
   -3.2100   -0.5654    1.3377 C   0  0  0  0  0  0  0  0  0  0  0  0
    4.6337    1.3082   -0.3615 C   0  0  0  0  0  0  0  0  0  0  0  0
    2.9673    2.5298    0.8908 C   0  0  0  0  0  0  0  0  0  0  0  0
   -4.1211    0.7063   -0.9721 C   0  0  0  0  0  0  0  0  0  0  0  0
   -4.1321    0.4767    1.4330 C   0  0  0  0  0  0  0  0  0  0  0  0
   -4.5876    1.1125    0.2781 C   0  0  0  0  0  0  0  0  0  0  0  0
    4.2291    2.4682    0.2992 C   0  0  0  0  0  0  0  0  0  0  0  0
   -2.2364   -3.0442   -0.0927 H   0  0  0  0  0  0  0  0  0  0  0  0
    4.0852   -0.6115   -1.0648 H   0  0  0  0  0  0  0  0  0  0  0  0
    1.1734    1.5110    1.3615 H   0  0  0  0  0  0  0  0  0  0  0  0
   -2.8404   -0.6459   -2.0466 H   0  0  0  0  0  0  0  0  0  0  0  0
   -2.8641   -1.0511    2.2471 H   0  0  0  0  0  0  0  0  0  0  0  0
    2.6596    3.4274    1.4194 H   0  0  0  0  0  0  0  0  0  0  0  0
   -4.4872    0.7833    2.4132 H   0  0  0  0  0  0  0  0  0  0  0  0
    4.8877    3.3305    0.3641 H   0  0  0  0  0  0  0  0  0  0  0  0
   -5.1904    2.0152   -1.8548 H   0  0  0  0  0  0  0  0  0  0  0  0
   -5.6963    2.2711    1.3237 H   0  0  0  0  0  0  0  0  0  0  0  0
  1 18  1  0  0  0  0
  2  9  1  0  0  0  0
  2 13  1  0  0  0  0
  3 13  2  0  0  0  0
  4 10  2  0  0  0  0
  5 20  1  0  0  0  0
  5 32  1  0  0  0  0
  6 22  1  0  0  0  0
  6 33  1  0  0  0  0
  7  8  1  0  0  0  0
  7 10  1  0  0  0  0
  7 13  1  0  0  0  0
  8 14  2  0  0  0  0
  8 15  1  0  0  0  0
  9 10  1  0  0  0  0
  9 12  2  0  0  0  0
 11 12  1  0  0  0  0
 11 16  2  0  0  0  0
 11 17  1  0  0  0  0
 12 24  1  0  0  0  0
 14 18  1  0  0  0  0
 14 25  1  0  0  0  0
 15 19  2  0  0  0  0
 15 26  1  0  0  0  0
 16 20  1  0  0  0  0
 16 27  1  0  0  0  0
 17 21  2  0  0  0  0
 17 28  1  0  0  0  0
 18 23  2  0  0  0  0
 19 23  1  0  0  0  0
 19 29  1  0  0  0  0
 20 22  2  0  0  0  0
 21 22  1  0  0  0  0
 21 30  1  0  0  0  0
 23 31  1  0  0  0  0
M  END
> <PUBCHEM_COMPOUND_CID>
2251798

> <PUBCHEM_CONFORMER_RMSD>
0.6

> <PUBCHEM_CONFORMER_DIVERSEORDER>
6
2
9
7
11
4
8
5
10
3
12
1

> <PUBCHEM_MMFF94_PARTIAL_CHARGES>
33
1 -0.18
10 0.62
11 0.03
12 -0.18
13 0.58
14 -0.15
15 -0.15
16 -0.15
17 -0.15
18 0.18
19 -0.15
2 -0.24
20 0.08
21 -0.15
22 0.08
23 -0.15
24 0.15
25 0.15
26 0.15
27 0.15
28 0.15
29 0.15
3 -0.38
30 0.15
31 0.15
32 0.45
33 0.45
4 -0.57
5 -0.53
6 -0.53
7 -0.24
8 0.12
9 0.12

> <PUBCHEM_EFFECTIVE_ROTOR_COUNT>
2.4

> <PUBCHEM_PHARMACOPHORE_FEATURES>
7
1 3 acceptor
1 4 acceptor
1 5 donor
1 6 donor
5 2 7 9 10 13 rings
6 11 16 17 20 21 22 rings
6 8 14 15 18 19 23 rings

> <PUBCHEM_HEAVY_ATOM_COUNT>
23

> <PUBCHEM_ATOM_DEF_STEREO_COUNT>
0

> <PUBCHEM_ATOM_UDEF_STEREO_COUNT>
0

> <PUBCHEM_BOND_DEF_STEREO_COUNT>
1

> <PUBCHEM_BOND_UDEF_STEREO_COUNT>
0

> <PUBCHEM_ISOTOPIC_ATOM_COUNT>
0

> <PUBCHEM_COMPONENT_COUNT>
1

> <PUBCHEM_CACTVS_TAUTO_COUNT>
10

> <PUBCHEM_CONFORMER_ID>
00225C1600000006

> <PUBCHEM_MMFF94_ENERGY>
79.7709

> <PUBCHEM_FEATURE_SELFOVERLAP>
35.526

> <PUBCHEM_SHAPE_FINGERPRINT>
10411042 1 17547294397794293623
10498660 4 18339635741337995553
11796584 16 13326588332092821556
12390115 104 18338529641103631103
12403259 415 18268715076777742256
12422481 6 18042660898377648104
12769317 202 18413101767037501648
12788726 201 17346046541371459713
13140716 1 18408604751347777915
13464514 151 18341899627627573066
13878862 14 18191285110313638397
14466204 15 18268700779332969064
14790565 3 18191877940539374772
14848178 96 18412539937785922360
15183329 4 18272096002567309588
1601671 61 18260267477797765500
18186145 218 18200315545135280242
18927931 339 8718287735626389824
19784866 170 18040998457559104484
19784866 34 18412262847975933235
20612939 158 18339640036231438694
20645477 56 18261112997812442003
21033648 144 18335415751639393311
21033648 29 18339639065695690552
21279426 13 18342187678557696054
21421861 104 18041268873775938682
21709351 56 18270682094727262860
22122407 14 18053962653951514729
22393880 68 18130503153815150574
23559900 14 18341887434099771690
335352 9 18412547609436133854
3459 83 17703244914310288014
350125 39 18335985264534717150
469060 322 18045790250120174107
474 4 18342172241902038603
5104073 3 18260548917966410395
5252454 2 18410008870539806940
543358 83 18342177739613080106
5486654 36 9294746336193259623
57724786 102 18335707083386855633
59124914 9 18412547613166722224
633830 44 18059867163612899981
7808743 9 17973729365968505116
9971528 1 17915734280726212186

> <PUBCHEM_SHAPE_MULTIPOLES>
460.31
12.22
3.36
1.17
1.17
1.66
-0.23
-9.35
-2.19
-2.58
0.29
1.12
-0.46
0.29

> <PUBCHEM_SHAPE_SELFOVERLAP>
979.298

> <PUBCHEM_SHAPE_VOLUME>
258.8

> <PUBCHEM_COORDINATE_TYPE>
2
5
10

$$$$
