5352084
  -OEChem-02101610533D

 52 56  0     1  0  0  0  0  0999 V2000
   -3.1658   -1.7377    0.0364 O   0  0  0  0  0  0  0  0  0  0  0  0
    1.6163   -1.4058   -0.0760 O   0  0  0  0  0  0  0  0  0  0  0  0
   -1.0406    2.6091    0.0959 O   0  0  0  0  0  0  0  0  0  0  0  0
   -3.5860    2.3110    0.2526 O   0  0  0  0  0  0  0  0  0  0  0  0
   -0.0611    4.6731    0.1082 O   0  0  0  0  0  0  0  0  0  0  0  0
   -4.6540    0.1512    0.2964 C   0  0  1  0  0  0  0  0  0  0  0  0
   -4.3274   -1.1038   -0.5168 C   0  0  2  0  0  0  0  0  0  0  0  0
   -2.1216    0.4533    0.0804 C   0  0  0  0  0  0  0  0  0  0  0  0
   -2.0476   -0.9409    0.0267 C   0  0  0  0  0  0  0  0  0  0  0  0
   -0.7978   -1.5840   -0.0022 C   0  0  0  0  0  0  0  0  0  0  0  0
    0.3811   -0.8154   -0.0117 C   0  0  0  0  0  0  0  0  0  0  0  0
   -3.4630    1.0925    0.1927 C   0  0  0  0  0  0  0  0  0  0  0  0
    1.7621   -2.8103    0.2015 C   0  0  0  0  0  0  0  0  0  0  0  0
    0.3312    0.5962    0.0025 C   0  0  0  0  0  0  0  0  0  0  0  0
   -0.9325    1.2004    0.0575 C   0  0  0  0  0  0  0  0  0  0  0  0
   -5.9296    0.8496   -0.1703 C   0  0  0  0  0  0  0  0  0  0  0  0
   -0.7003   -3.0413   -0.0536 C   0  0  0  0  0  0  0  0  0  0  0  0
    0.5000   -3.6130    0.0516 C   0  0  0  0  0  0  0  0  0  0  0  0
   -5.4387   -2.1491   -0.4824 C   0  0  0  0  0  0  0  0  0  0  0  0
    1.5295    1.4724   -0.0268 C   0  0  0  0  0  0  0  0  0  0  0  0
    2.3020   -2.9461    1.6298 C   0  0  0  0  0  0  0  0  0  0  0  0
    2.8093   -3.3228   -0.7946 C   0  0  0  0  0  0  0  0  0  0  0  0
    1.3669    2.8054    0.0078 C   0  0  0  0  0  0  0  0  0  0  0  0
    2.9421    1.0405   -0.0972 C   0  0  0  0  0  0  0  0  0  0  0  0
    0.0523    3.4533    0.0747 C   0  0  0  0  0  0  0  0  0  0  0  0
    3.5512    0.8682   -1.3367 C   0  0  0  0  0  0  0  0  0  0  0  0
    3.6530    0.8082    1.0764 C   0  0  0  0  0  0  0  0  0  0  0  0
    4.8834    0.4600   -1.4030 C   0  0  0  0  0  0  0  0  0  0  0  0
    4.9851    0.4000    1.0100 C   0  0  0  0  0  0  0  0  0  0  0  0
    5.6003    0.2258   -0.2297 C   0  0  0  0  0  0  0  0  0  0  0  0
   -4.7520   -0.1016    1.3606 H   0  0  0  0  0  0  0  0  0  0  0  0
   -4.1240   -0.8554   -1.5684 H   0  0  0  0  0  0  0  0  0  0  0  0
   -6.8109    0.2209   -0.0121 H   0  0  0  0  0  0  0  0  0  0  0  0
   -6.0957    1.7795    0.3848 H   0  0  0  0  0  0  0  0  0  0  0  0
   -5.8738    1.1064   -1.2338 H   0  0  0  0  0  0  0  0  0  0  0  0
   -1.5916   -3.6492   -0.1518 H   0  0  0  0  0  0  0  0  0  0  0  0
    0.5702   -4.6976    0.0481 H   0  0  0  0  0  0  0  0  0  0  0  0
   -6.3399   -1.8041   -0.9966 H   0  0  0  0  0  0  0  0  0  0  0  0
   -5.1058   -3.0744   -0.9659 H   0  0  0  0  0  0  0  0  0  0  0  0
   -5.6982   -2.4107    0.5494 H   0  0  0  0  0  0  0  0  0  0  0  0
    1.5950   -2.5319    2.3585 H   0  0  0  0  0  0  0  0  0  0  0  0
    2.4964   -3.9909    1.8959 H   0  0  0  0  0  0  0  0  0  0  0  0
    3.2337   -2.3817    1.7507 H   0  0  0  0  0  0  0  0  0  0  0  0
    3.7419   -2.7528   -0.7086 H   0  0  0  0  0  0  0  0  0  0  0  0
    3.0400   -4.3827   -0.6401 H   0  0  0  0  0  0  0  0  0  0  0  0
    2.4635   -3.1920   -1.8272 H   0  0  0  0  0  0  0  0  0  0  0  0
    2.2159    3.4850   -0.0126 H   0  0  0  0  0  0  0  0  0  0  0  0
    3.0043    1.0446   -2.2596 H   0  0  0  0  0  0  0  0  0  0  0  0
    3.1860    0.9368    2.0496 H   0  0  0  0  0  0  0  0  0  0  0  0
    5.3620    0.3230   -2.3683 H   0  0  0  0  0  0  0  0  0  0  0  0
    5.5428    0.2160    1.9236 H   0  0  0  0  0  0  0  0  0  0  0  0
    6.6372   -0.0933   -0.2813 H   0  0  0  0  0  0  0  0  0  0  0  0
  1  7  1  0  0  0  0
  1  9  1  0  0  0  0
  2 11  1  0  0  0  0
  2 13  1  0  0  0  0
  3 15  1  0  0  0  0
  3 25  1  0  0  0  0
  4 12  2  0  0  0  0
  5 25  2  0  0  0  0
  6  7  1  0  0  0  0
  6 12  1  0  0  0  0
  6 16  1  0  0  0  0
  6 31  1  0  0  0  0
  7 19  1  0  0  0  0
  7 32  1  0  0  0  0
  8  9  2  0  0  0  0
  8 12  1  0  0  0  0
  8 15  1  0  0  0  0
  9 10  1  0  0  0  0
 10 11  2  0  0  0  0
 10 17  1  0  0  0  0
 11 14  1  0  0  0  0
 13 18  1  0  0  0  0
 13 21  1  0  0  0  0
 13 22  1  0  0  0  0
 14 15  2  0  0  0  0
 14 20  1  0  0  0  0
 16 33  1  0  0  0  0
 16 34  1  0  0  0  0
 16 35  1  0  0  0  0
 17 18  2  0  0  0  0
 17 36  1  0  0  0  0
 18 37  1  0  0  0  0
 19 38  1  0  0  0  0
 19 39  1  0  0  0  0
 19 40  1  0  0  0  0
 20 23  2  0  0  0  0
 20 24  1  0  0  0  0
 21 41  1  0  0  0  0
 21 42  1  0  0  0  0
 21 43  1  0  0  0  0
 22 44  1  0  0  0  0
 22 45  1  0  0  0  0
 22 46  1  0  0  0  0
 23 25  1  0  0  0  0
 23 47  1  0  0  0  0
 24 26  2  0  0  0  0
 24 27  1  0  0  0  0
 26 28  1  0  0  0  0
 26 48  1  0  0  0  0
 27 29  2  0  0  0  0
 27 49  1  0  0  0  0
 28 30  2  0  0  0  0
 28 50  1  0  0  0  0
 29 30  1  0  0  0  0
 29 51  1  0  0  0  0
 30 52  1  0  0  0  0
M  END
> <PUBCHEM_COMPOUND_CID>
5352084

> <PUBCHEM_CONFORMER_RMSD>
0.6

> <PUBCHEM_CONFORMER_DIVERSEORDER>
1
2

> <PUBCHEM_MMFF94_PARTIAL_CHARGES>
34
1 -0.36
10 0.03
11 0.08
12 0.42
13 0.42
14 0.03
15 0.08
17 -0.18
18 -0.29
2 -0.36
20 -0.06
23 -0.14
24 0.03
25 0.71
26 -0.15
27 -0.15
28 -0.15
29 -0.15
3 -0.23
30 -0.15
36 0.15
37 0.15
4 -0.57
47 0.15
48 0.15
49 0.15
5 -0.57
50 0.15
51 0.15
52 0.15
6 0.06
7 0.28
8 0.09
9 0.08

> <PUBCHEM_EFFECTIVE_ROTOR_COUNT>
2

> <PUBCHEM_PHARMACOPHORE_FEATURES>
10
1 1 acceptor
1 2 acceptor
1 4 acceptor
1 5 acceptor
3 13 21 22 hydrophobe
6 1 6 7 8 9 12 rings
6 2 10 11 13 17 18 rings
6 24 26 27 28 29 30 rings
6 3 14 15 20 23 25 rings
6 8 9 10 11 14 15 rings

> <PUBCHEM_HEAVY_ATOM_COUNT>
30

> <PUBCHEM_ATOM_DEF_STEREO_COUNT>
2

> <PUBCHEM_ATOM_UDEF_STEREO_COUNT>
0

> <PUBCHEM_BOND_DEF_STEREO_COUNT>
0

> <PUBCHEM_BOND_UDEF_STEREO_COUNT>
0

> <PUBCHEM_ISOTOPIC_ATOM_COUNT>
0

> <PUBCHEM_COMPONENT_COUNT>
1

> <PUBCHEM_CACTVS_TAUTO_COUNT>
2

> <PUBCHEM_CONFORMER_ID>
0051AA9400000001

> <PUBCHEM_MMFF94_ENERGY>
109.4184

> <PUBCHEM_FEATURE_SELFOVERLAP>
50.828

> <PUBCHEM_SHAPE_FINGERPRINT>
10693767 8 18202558488653386935
10906281 52 18261688024717975769
10967382 1 18410856538376027659
1100329 8 18194398029062383306
11513181 2 18059855022152604287
11578080 2 17169818982171255823
11646440 116 18201450215360255377
11963148 33 18334571391087233403
12236239 1 17822008739962048300
12422481 6 18119504584837365874
12553582 1 18410003351617971648
12788726 201 18334576798418864968
12838862 33 18338497708190908624
13140716 1 17904762537443809667
138480 1 18411135793197427187
14394314 77 18411135840099968992
14466204 15 18410851100821051544
14790565 3 18337399339077551236
15420108 30 17698187074675610409
15927050 60 17547574142077798196
1601671 61 18409165523646466240
16112460 7 18126577726143836265
16752209 62 18337112358220973928
17909252 39 17915474804877849918
18681886 176 18268984456894289505
19319366 153 17677041460713588578
19591789 44 18338517546470294828
20028762 73 18057321893338277023
20642791 35 18050855416104077295
20691752 17 17531535269563141890
20721686 56 18337114454229006786
20739085 24 18122369903206647121
20775438 99 16547178020353475335
20905425 154 18270122284542511014
21033648 29 17632003251719271482
21267235 1 18339648961859138919
21421861 104 18044659694004123896
22113638 7 18267578190270527990
22311459 1 18339080518431848287
22393880 68 18341619161561813735
23558518 356 17901108512396521888
23559900 14 18269831081280895121
23566358 2 18338233739384475694
266924 87 18265894648985164892
3004659 81 18260270780780655508
3178227 256 18263939898147349163
3298306 158 18408601482924560207
335352 9 18411419548923533461
3380486 145 18263090942233233889
338550 245 18407481055069764310
34934 24 18412542098333748831
350125 39 18409730703310451845
352729 6 18050012387143922019
3680242 22 18334857203816557658
4093350 32 17203056175360651399
463206 1 18408886260609931883
469060 322 18339934735550163120
484989 97 17903639923572485799
5104073 3 18337115558383339771
5265222 85 18268998760433045484
59755656 215 18410575058914484950
6138700 20 18411704275058514222

> <PUBCHEM_SHAPE_MULTIPOLES>
588.04
10.48
4.67
0.95
4.75
0.18
-0.02
0.09
1.16
-0.54
-0.31
-1.05
-0.25
-0.58

> <PUBCHEM_SHAPE_SELFOVERLAP>
1316.034

> <PUBCHEM_SHAPE_VOLUME>
311.7

> <PUBCHEM_COORDINATE_TYPE>
2
5
10

$$$$
