80733
  -OEChem-02101610523D

 56 64  0     0  0  0  0  0  0999 V2000
   -5.6275    2.6569    0.0094 O   0  0  0  0  0  0  0  0  0  0  0  0
    5.6275    2.6570   -0.0069 O   0  0  0  0  0  0  0  0  0  0  0  0
   -9.9970   -1.8434   -0.0014 O   0  5  0  0  0  0  0  0  0  0  0  0
    9.9967   -1.8437    0.0098 O   0  5  0  0  0  0  0  0  0  0  0  0
   -9.9275    0.3508    0.0053 O   0  0  0  0  0  0  0  0  0  0  0  0
    9.9278    0.3504    0.0025 O   0  0  0  0  0  0  0  0  0  0  0  0
   -9.3540   -0.7655    0.0012 N   0  3  0  0  0  0  0  0  0  0  0  0
    9.3541   -0.7658    0.0053 N   0  3  0  0  0  0  0  0  0  0  0  0
   -1.4367    0.3133   -0.0011 C   0  0  0  0  0  0  0  0  0  0  0  0
    1.4367    0.3134   -0.0025 C   0  0  0  0  0  0  0  0  0  0  0  0
   -0.7179   -0.9058   -0.0024 C   0  0  0  0  0  0  0  0  0  0  0  0
    0.7178   -0.9057   -0.0026 C   0  0  0  0  0  0  0  0  0  0  0  0
   -0.7178    1.5398   -0.0008 C   0  0  0  0  0  0  0  0  0  0  0  0
    0.7179    1.5397   -0.0021 C   0  0  0  0  0  0  0  0  0  0  0  0
   -2.8792    0.3053    0.0000 C   0  0  0  0  0  0  0  0  0  0  0  0
    2.8792    0.3054   -0.0027 C   0  0  0  0  0  0  0  0  0  0  0  0
   -3.6072   -0.9090   -0.0012 C   0  0  0  0  0  0  0  0  0  0  0  0
    3.6071   -0.9089   -0.0016 C   0  0  0  0  0  0  0  0  0  0  0  0
   -3.5590    1.5328    0.0025 C   0  0  0  0  0  0  0  0  0  0  0  0
    3.5590    1.5330   -0.0037 C   0  0  0  0  0  0  0  0  0  0  0  0
   -1.4790   -2.0917   -0.0032 C   0  0  0  0  0  0  0  0  0  0  0  0
    1.4790   -2.0916   -0.0024 C   0  0  0  0  0  0  0  0  0  0  0  0
   -1.4778    2.7315    0.0010 C   0  0  0  0  0  0  0  0  0  0  0  0
    1.4778    2.7316   -0.0029 C   0  0  0  0  0  0  0  0  0  0  0  0
   -5.0939   -0.9032   -0.0010 C   0  0  0  0  0  0  0  0  0  0  0  0
    5.0939   -0.9031    0.0000 C   0  0  0  0  0  0  0  0  0  0  0  0
   -2.8730   -2.0957   -0.0026 C   0  0  0  0  0  0  0  0  0  0  0  0
    2.8729   -2.0956   -0.0016 C   0  0  0  0  0  0  0  0  0  0  0  0
   -2.8667    2.7359    0.0029 C   0  0  0  0  0  0  0  0  0  0  0  0
    2.8667    2.7361   -0.0040 C   0  0  0  0  0  0  0  0  0  0  0  0
   -5.7939    0.3155    0.0026 C   0  0  0  0  0  0  0  0  0  0  0  0
    5.7938    0.3156   -0.0021 C   0  0  0  0  0  0  0  0  0  0  0  0
   -5.0383    1.5829    0.0056 C   0  0  0  0  0  0  0  0  0  0  0  0
    5.0384    1.5830   -0.0050 C   0  0  0  0  0  0  0  0  0  0  0  0
   -5.8760   -2.0758   -0.0044 C   0  0  0  0  0  0  0  0  0  0  0  0
    5.8760   -2.0756    0.0037 C   0  0  0  0  0  0  0  0  0  0  0  0
   -7.1969    0.3668    0.0034 C   0  0  0  0  0  0  0  0  0  0  0  0
    7.1969    0.3669   -0.0009 C   0  0  0  0  0  0  0  0  0  0  0  0
   -7.9353   -0.8105    0.0001 C   0  0  0  0  0  0  0  0  0  0  0  0
    7.9353   -0.8104    0.0025 C   0  0  0  0  0  0  0  0  0  0  0  0
   -7.2751   -2.0314   -0.0039 C   0  0  0  0  0  0  0  0  0  0  0  0
    7.2750   -2.0313    0.0050 C   0  0  0  0  0  0  0  0  0  0  0  0
   -1.0095   -3.0717   -0.0044 H   0  0  0  0  0  0  0  0  0  0  0  0
    1.0095   -3.0716   -0.0022 H   0  0  0  0  0  0  0  0  0  0  0  0
   -1.0067    3.7104    0.0016 H   0  0  0  0  0  0  0  0  0  0  0  0
    1.0066    3.7104   -0.0031 H   0  0  0  0  0  0  0  0  0  0  0  0
   -3.3530   -3.0698   -0.0034 H   0  0  0  0  0  0  0  0  0  0  0  0
    3.3530   -3.0698   -0.0012 H   0  0  0  0  0  0  0  0  0  0  0  0
   -3.3823    3.6924    0.0048 H   0  0  0  0  0  0  0  0  0  0  0  0
    3.3823    3.6926   -0.0047 H   0  0  0  0  0  0  0  0  0  0  0  0
   -5.4236   -3.0633   -0.0077 H   0  0  0  0  0  0  0  0  0  0  0  0
    5.4236   -3.0632    0.0059 H   0  0  0  0  0  0  0  0  0  0  0  0
   -7.6956    1.3331    0.0064 H   0  0  0  0  0  0  0  0  0  0  0  0
    7.6956    1.3333   -0.0023 H   0  0  0  0  0  0  0  0  0  0  0  0
   -7.8120   -2.9770   -0.0066 H   0  0  0  0  0  0  0  0  0  0  0  0
    7.8119   -2.9768    0.0082 H   0  0  0  0  0  0  0  0  0  0  0  0
  1 33  2  0  0  0  0
  2 34  2  0  0  0  0
  3  7  1  0  0  0  0
  4  8  1  0  0  0  0
  5  7  2  0  0  0  0
  6  8  2  0  0  0  0
  7 39  1  0  0  0  0
  8 40  1  0  0  0  0
  9 11  2  0  0  0  0
  9 13  1  0  0  0  0
  9 15  1  0  0  0  0
 10 12  2  0  0  0  0
 10 14  1  0  0  0  0
 10 16  1  0  0  0  0
 11 12  1  0  0  0  0
 11 21  1  0  0  0  0
 12 22  1  0  0  0  0
 13 14  1  0  0  0  0
 13 23  2  0  0  0  0
 14 24  2  0  0  0  0
 15 17  2  0  0  0  0
 15 19  1  0  0  0  0
 16 18  2  0  0  0  0
 16 20  1  0  0  0  0
 17 25  1  0  0  0  0
 17 27  1  0  0  0  0
 18 26  1  0  0  0  0
 18 28  1  0  0  0  0
 19 29  2  0  0  0  0
 19 33  1  0  0  0  0
 20 30  2  0  0  0  0
 20 34  1  0  0  0  0
 21 27  2  0  0  0  0
 21 43  1  0  0  0  0
 22 28  2  0  0  0  0
 22 44  1  0  0  0  0
 23 29  1  0  0  0  0
 23 45  1  0  0  0  0
 24 30  1  0  0  0  0
 24 46  1  0  0  0  0
 25 31  2  0  0  0  0
 25 35  1  0  0  0  0
 26 32  2  0  0  0  0
 26 36  1  0  0  0  0
 27 47  1  0  0  0  0
 28 48  1  0  0  0  0
 29 49  1  0  0  0  0
 30 50  1  0  0  0  0
 31 33  1  0  0  0  0
 31 37  1  0  0  0  0
 32 34  1  0  0  0  0
 32 38  1  0  0  0  0
 35 41  2  0  0  0  0
 35 51  1  0  0  0  0
 36 42  2  0  0  0  0
 36 52  1  0  0  0  0
 37 39  2  0  0  0  0
 37 53  1  0  0  0  0
 38 40  2  0  0  0  0
 38 54  1  0  0  0  0
 39 41  1  0  0  0  0
 40 42  1  0  0  0  0
 41 55  1  0  0  0  0
 42 56  1  0  0  0  0
M  CHG  4   3  -1   4  -1   7   1   8   1
M  END
> <PUBCHEM_COMPOUND_CID>
80733

> <PUBCHEM_CONFORMER_RMSD>
0.8

> <PUBCHEM_CONFORMER_DIVERSEORDER>
1

> <PUBCHEM_MMFF94_PARTIAL_CHARGES>
44
1 -0.57
19 0.09
2 -0.57
20 0.09
21 -0.15
22 -0.15
23 -0.15
24 -0.15
27 -0.15
28 -0.15
29 -0.15
3 -0.52
30 -0.15
31 0.09
32 0.09
33 0.4
34 0.4
35 -0.15
36 -0.15
37 -0.15
38 -0.15
39 0.13
4 -0.52
40 0.13
41 -0.15
42 -0.15
43 0.15
44 0.15
45 0.15
46 0.15
47 0.15
48 0.15
49 0.15
5 -0.52
50 0.15
51 0.15
52 0.15
53 0.15
54 0.15
55 0.15
56 0.15
6 -0.52
7 0.91
8 0.91

> <PUBCHEM_EFFECTIVE_ROTOR_COUNT>
2

> <PUBCHEM_PHARMACOPHORE_FEATURES>
17
1 1 acceptor
1 2 acceptor
1 3 acceptor
1 3 anion
1 4 acceptor
1 4 anion
1 5 acceptor
1 6 acceptor
6 10 12 16 18 22 28 rings
6 10 14 16 20 24 30 rings
6 15 17 19 25 31 33 rings
6 16 18 20 26 32 34 rings
6 25 31 35 37 39 41 rings
6 26 32 36 38 40 42 rings
6 9 10 11 12 13 14 rings
6 9 11 15 17 21 27 rings
6 9 13 15 19 23 29 rings

> <PUBCHEM_HEAVY_ATOM_COUNT>
42

> <PUBCHEM_ATOM_DEF_STEREO_COUNT>
0

> <PUBCHEM_ATOM_UDEF_STEREO_COUNT>
0

> <PUBCHEM_BOND_DEF_STEREO_COUNT>
0

> <PUBCHEM_BOND_UDEF_STEREO_COUNT>
0

> <PUBCHEM_ISOTOPIC_ATOM_COUNT>
0

> <PUBCHEM_COMPONENT_COUNT>
1

> <PUBCHEM_CACTVS_TAUTO_COUNT>
1

> <PUBCHEM_CONFORMER_ID>
00013B5D00000001

> <PUBCHEM_MMFF94_ENERGY>
170.3592

> <PUBCHEM_FEATURE_SELFOVERLAP>
86.714

> <PUBCHEM_SHAPE_FINGERPRINT>
10050765 1 18122344571115053447
10076449 9 18131915953126152875
10580692 12 18411699890271165504
11456790 92 18060430131527043209
11578080 2 16843583114695268512
12013929 94 18412829088834438000
12133447 93 18270131093679087260
12522641 24 17561077038625780456
12664476 115 18410007740958139785
13811026 1 18410575084663104903
14118638 360 15430305898010324448
14394314 77 18338802191255086016
15064986 96 17989496216207145863
15840311 113 18187085100655333484
15890870 6 18408041814168338974
16067689 302 18343022142958093478
16087824 20 18410856542491640477
18608769 82 18411980256270620359
18681886 176 18341324552928396826
19611394 137 18043262421300811163
20721686 56 18335703883973492771
21057603 40 16988571148128108990
21133410 90 17203324572251279410
21267235 1 18410575088958072196
21792934 111 18342168981736992024
22082593 10 18410857647390330225
22311459 1 18410575089106291446
232437 2 18410575088958448962
23559900 14 18339917207614365889
23569917 315 18411707577366735950
24893992 56 18261110811278950091
249057 3 18411981381721350838
335352 9 18410013247528317158
335507 130 18131067134312796895
3383291 50 18408039632419989723
350125 39 18411136935115681804
4073 2 17969225701484095842
439807 62 18410013247174979944
4461854 278 17917713521556825487
4625314 4 18409448103110228077
6081469 158 17967247598360653694
6691757 9 16343428397226906767
99344 41 18341051826979441703
9962374 69 18340480157551365135

> <PUBCHEM_SHAPE_MULTIPOLES>
819.16
29.53
3.16
0.6
0
1.18
0
-13.05
0.05
0
0
0
0
-0.02

> <PUBCHEM_SHAPE_SELFOVERLAP>
1948.73

> <PUBCHEM_SHAPE_VOLUME>
405.3

> <PUBCHEM_COORDINATE_TYPE>
2
5
10

$$$$
