95786
  -OEChem-02101610493D

 29 30  0     0  0  0  0  0  0999 V2000
   -4.1036    0.5385   -0.3020 O   0  0  0  0  0  0  0  0  0  0  0  0
    1.4512   -2.4077   -0.1342 O   0  0  0  0  0  0  0  0  0  0  0  0
    4.4202    1.9973    0.2090 O   0  0  0  0  0  0  0  0  0  0  0  0
    0.0212    0.1216   -0.1051 C   0  0  0  0  0  0  0  0  0  0  0  0
    1.4863   -0.0270   -0.0343 C   0  0  0  0  0  0  0  0  0  0  0  0
   -0.6093    0.2416   -1.3434 C   0  0  0  0  0  0  0  0  0  0  0  0
   -0.7342    0.1417    1.0673 C   0  0  0  0  0  0  0  0  0  0  0  0
   -2.7513    0.4020   -0.2370 C   0  0  0  0  0  0  0  0  0  0  0  0
   -1.9955    0.3820   -1.4094 C   0  0  0  0  0  0  0  0  0  0  0  0
   -2.1205    0.2819    1.0014 C   0  0  0  0  0  0  0  0  0  0  0  0
    2.1146   -1.3796   -0.0385 C   0  0  0  0  0  0  0  0  0  0  0  0
    2.2572    1.0668    0.0513 C   0  0  0  0  0  0  0  0  0  0  0  0
    3.7305    0.9858    0.1406 C   0  0  0  0  0  0  0  0  0  0  0  0
    3.5872   -1.4541    0.0662 C   0  0  0  0  0  0  0  0  0  0  0  0
   -4.8689   -0.0732    0.7353 C   0  0  0  0  0  0  0  0  0  0  0  0
    4.3396   -0.3566    0.1480 C   0  0  0  0  0  0  0  0  0  0  0  0
   -6.2247   -0.4610    0.1847 C   0  0  0  0  0  0  0  0  0  0  0  0
   -0.0341    0.2265   -2.2660 H   0  0  0  0  0  0  0  0  0  0  0  0
   -0.2561    0.0543    2.0401 H   0  0  0  0  0  0  0  0  0  0  0  0
   -2.4814    0.4747   -2.3769 H   0  0  0  0  0  0  0  0  0  0  0  0
   -2.6684    0.3203    1.9382 H   0  0  0  0  0  0  0  0  0  0  0  0
    1.8307    2.0658    0.0609 H   0  0  0  0  0  0  0  0  0  0  0  0
    4.0404   -2.4393    0.0702 H   0  0  0  0  0  0  0  0  0  0  0  0
   -4.3921   -0.9880    1.1091 H   0  0  0  0  0  0  0  0  0  0  0  0
   -4.9931    0.6388    1.5587 H   0  0  0  0  0  0  0  0  0  0  0  0
    5.4192   -0.4228    0.2212 H   0  0  0  0  0  0  0  0  0  0  0  0
   -6.8436   -0.9246    0.9580 H   0  0  0  0  0  0  0  0  0  0  0  0
   -6.7479    0.4181   -0.2059 H   0  0  0  0  0  0  0  0  0  0  0  0
   -6.1162   -1.1627   -0.6491 H   0  0  0  0  0  0  0  0  0  0  0  0
  1  8  1  0  0  0  0
  1 15  1  0  0  0  0
  2 11  2  0  0  0  0
  3 13  2  0  0  0  0
  4  5  1  0  0  0  0
  4  6  2  0  0  0  0
  4  7  1  0  0  0  0
  5 11  1  0  0  0  0
  5 12  2  0  0  0  0
  6  9  1  0  0  0  0
  6 18  1  0  0  0  0
  7 10  2  0  0  0  0
  7 19  1  0  0  0  0
  8  9  2  0  0  0  0
  8 10  1  0  0  0  0
  9 20  1  0  0  0  0
 10 21  1  0  0  0  0
 11 14  1  0  0  0  0
 12 13  1  0  0  0  0
 12 22  1  0  0  0  0
 13 16  1  0  0  0  0
 14 16  2  0  0  0  0
 14 23  1  0  0  0  0
 15 17  1  0  0  0  0
 15 24  1  0  0  0  0
 15 25  1  0  0  0  0
 16 26  1  0  0  0  0
 17 27  1  0  0  0  0
 17 28  1  0  0  0  0
 17 29  1  0  0  0  0
M  END
> <PUBCHEM_COMPOUND_CID>
95786

> <PUBCHEM_CONFORMER_RMSD>
0.6

> <PUBCHEM_CONFORMER_DIVERSEORDER>
1
12
7
4
6
10
3
8
11
2
9
5

> <PUBCHEM_MMFF94_PARTIAL_CHARGES>
23
1 -0.36
10 -0.15
11 0.54
12 -0.14
13 0.54
14 -0.14
15 0.28
16 -0.14
18 0.15
19 0.15
2 -0.57
20 0.15
21 0.15
22 0.15
23 0.15
26 0.15
3 -0.57
4 0.03
5 -0.01
6 -0.15
7 -0.15
8 0.08
9 -0.15

> <PUBCHEM_EFFECTIVE_ROTOR_COUNT>
3

> <PUBCHEM_PHARMACOPHORE_FEATURES>
5
1 1 acceptor
1 2 acceptor
1 3 acceptor
6 4 6 7 8 9 10 rings
6 5 11 12 13 14 16 rings

> <PUBCHEM_HEAVY_ATOM_COUNT>
17

> <PUBCHEM_ATOM_DEF_STEREO_COUNT>
0

> <PUBCHEM_ATOM_UDEF_STEREO_COUNT>
0

> <PUBCHEM_BOND_DEF_STEREO_COUNT>
0

> <PUBCHEM_BOND_UDEF_STEREO_COUNT>
0

> <PUBCHEM_ISOTOPIC_ATOM_COUNT>
0

> <PUBCHEM_COMPONENT_COUNT>
1

> <PUBCHEM_CACTVS_TAUTO_COUNT>
1

> <PUBCHEM_CONFORMER_ID>
0001762A00000001

> <PUBCHEM_MMFF94_ENERGY>
51.4394

> <PUBCHEM_FEATURE_SELFOVERLAP>
25.373

> <PUBCHEM_SHAPE_FINGERPRINT>
11287383 113 18334295379286667641
11401426 45 16298383578862612433
11471102 20 18410572873335267628
12107183 9 17478621113952620067
12236239 1 17632859711464270696
12916748 109 15339123437405221850
13533116 47 18343023263559104322
13538477 17 17418082239438829846
13581323 91 15285354007603441716
13760787 19 17988921206338640439
13760787 5 17846208947823596405
14252887 29 17967819323016643281
14911166 2 15430042058876128491
15219456 202 18114176411106858964
15342168 16 18191589855412823396
15375462 189 17846489305776487563
17834072 33 18343300379544611159
1813 80 17700426780367694710
18186145 218 18343295977456353564
19026448 4 18260827056106673485
19141452 34 18113905987677392267
200 152 18342454816321454329
20279233 1 17603875485117472163
204376 136 18338236076337151660
20645477 70 18410856516880449454
21267235 1 18272940384247101086
22079108 93 18272085062504722520
22854114 59 18335138695856917124
23048698 100 18202847634340713512
23402539 116 16877655790803655335
23557571 272 17168144490360067407
23559900 14 16226060976557641714
26918003 58 18410013230343160283
3286 77 18115868508115502790
33824 294 18334575720255362354
42630746 31 18413108364181153710
4340502 62 18412547634683814939
449060 50 18409166632006647477
474 4 17986944344767676608
5104073 3 18261389984311225081
621550 34 18187077347621802180
69090 78 18186519912638750787
77492 1 17632290160262146980
8272917 22 18200600193781781159
9981440 41 16480748762203254032

> <PUBCHEM_SHAPE_MULTIPOLES>
332.24
10.78
1.48
1.02
10.06
0.43
-0.16
-0.18
1.57
-2.1
0
0.65
-0.11
0.32

> <PUBCHEM_SHAPE_SELFOVERLAP>
710.885

> <PUBCHEM_SHAPE_VOLUME>
183.5

> <PUBCHEM_COORDINATE_TYPE>
2
5
10

$$$$
