767163
  -OEChem-02101610513D

 33 34  0     0  0  0  0  0  0999 V2000
    3.1739   -1.1146   -0.3431 S   0  0  0  0  0  0  0  0  0  0  0  0
    5.9289    1.5853    0.5236 O   0  0  0  0  0  0  0  0  0  0  0  0
    5.9881   -0.5830   -0.1546 O   0  0  0  0  0  0  0  0  0  0  0  0
   -2.6432    0.1024    0.0203 N   0  0  0  0  0  0  0  0  0  0  0  0
   -3.6389   -0.8073    0.3107 C   0  0  0  0  0  0  0  0  0  0  0  0
   -3.2223    1.3398   -0.1707 C   0  0  0  0  0  0  0  0  0  0  0  0
   -1.2920   -0.1793   -0.0643 C   0  0  0  0  0  0  0  0  0  0  0  0
   -4.8470   -0.1457    0.3024 C   0  0  0  0  0  0  0  0  0  0  0  0
   -4.5835    1.2126   -0.0020 C   0  0  0  0  0  0  0  0  0  0  0  0
   -0.7344   -0.5616   -1.2843 C   0  0  0  0  0  0  0  0  0  0  0  0
   -0.4870   -0.0823    1.0707 C   0  0  0  0  0  0  0  0  0  0  0  0
   -3.3530   -2.2351    0.5719 C   0  0  0  0  0  0  0  0  0  0  0  0
   -2.4262    2.5422   -0.4991 C   0  0  0  0  0  0  0  0  0  0  0  0
    0.6283   -0.8470   -1.3693 C   0  0  0  0  0  0  0  0  0  0  0  0
    0.8758   -0.3676    0.9858 C   0  0  0  0  0  0  0  0  0  0  0  0
    1.4335   -0.7500   -0.2343 C   0  0  0  0  0  0  0  0  0  0  0  0
    3.8494    0.4786    0.1749 C   0  0  0  0  0  0  0  0  0  0  0  0
    5.3495    0.4128    0.1613 C   0  0  0  0  0  0  0  0  0  0  0  0
   -5.8140   -0.5898    0.4944 H   0  0  0  0  0  0  0  0  0  0  0  0
   -5.3098    2.0089   -0.0880 H   0  0  0  0  0  0  0  0  0  0  0  0
   -1.3494   -0.6417   -2.1775 H   0  0  0  0  0  0  0  0  0  0  0  0
   -0.9082    0.2119    2.0292 H   0  0  0  0  0  0  0  0  0  0  0  0
   -2.8789   -2.7072   -0.2946 H   0  0  0  0  0  0  0  0  0  0  0  0
   -2.6966   -2.3533    1.4400 H   0  0  0  0  0  0  0  0  0  0  0  0
   -4.2766   -2.7853    0.7811 H   0  0  0  0  0  0  0  0  0  0  0  0
   -1.7034    2.7648    0.2924 H   0  0  0  0  0  0  0  0  0  0  0  0
   -1.8860    2.4119   -1.4423 H   0  0  0  0  0  0  0  0  0  0  0  0
   -3.0727    3.4195   -0.6095 H   0  0  0  0  0  0  0  0  0  0  0  0
    1.0451   -1.1432   -2.3288 H   0  0  0  0  0  0  0  0  0  0  0  0
    1.4793   -0.2962    1.8870 H   0  0  0  0  0  0  0  0  0  0  0  0
    3.5302    0.7179    1.1928 H   0  0  0  0  0  0  0  0  0  0  0  0
    3.5233    1.2592   -0.5186 H   0  0  0  0  0  0  0  0  0  0  0  0
    6.9082    1.5311    0.5039 H   0  0  0  0  0  0  0  0  0  0  0  0
  1 16  1  0  0  0  0
  1 17  1  0  0  0  0
  2 18  1  0  0  0  0
  2 33  1  0  0  0  0
  3 18  2  0  0  0  0
  4  5  1  0  0  0  0
  4  6  1  0  0  0  0
  4  7  1  0  0  0  0
  5  8  2  0  0  0  0
  5 12  1  0  0  0  0
  6  9  2  0  0  0  0
  6 13  1  0  0  0  0
  7 10  2  0  0  0  0
  7 11  1  0  0  0  0
  8  9  1  0  0  0  0
  8 19  1  0  0  0  0
  9 20  1  0  0  0  0
 10 14  1  0  0  0  0
 10 21  1  0  0  0  0
 11 15  2  0  0  0  0
 11 22  1  0  0  0  0
 12 23  1  0  0  0  0
 12 24  1  0  0  0  0
 12 25  1  0  0  0  0
 13 26  1  0  0  0  0
 13 27  1  0  0  0  0
 13 28  1  0  0  0  0
 14 16  2  0  0  0  0
 14 29  1  0  0  0  0
 15 16  1  0  0  0  0
 15 30  1  0  0  0  0
 17 18  1  0  0  0  0
 17 31  1  0  0  0  0
 17 32  1  0  0  0  0
M  END
> <PUBCHEM_COMPOUND_CID>
767163

> <PUBCHEM_CONFORMER_RMSD>
0.6

> <PUBCHEM_CONFORMER_DIVERSEORDER>
1
9
2
11
3
12
4
8
6
7
5
10

> <PUBCHEM_MMFF94_PARTIAL_CHARGES>
25
1 -0.33
10 -0.15
11 -0.15
12 0.18
13 0.18
14 -0.15
15 -0.15
16 0.1
17 0.29
18 0.66
19 0.15
2 -0.65
20 0.15
21 0.15
22 0.15
29 0.15
3 -0.57
30 0.15
33 0.5
4 0.33
5 -0.33
6 -0.33
7 -0.02
8 -0.15
9 -0.15

> <PUBCHEM_EFFECTIVE_ROTOR_COUNT>
4

> <PUBCHEM_PHARMACOPHORE_FEATURES>
6
1 2 acceptor
1 3 acceptor
1 4 cation
3 2 3 18 anion
5 4 5 6 8 9 rings
6 7 10 11 14 15 16 rings

> <PUBCHEM_HEAVY_ATOM_COUNT>
18

> <PUBCHEM_ATOM_DEF_STEREO_COUNT>
0

> <PUBCHEM_ATOM_UDEF_STEREO_COUNT>
0

> <PUBCHEM_BOND_DEF_STEREO_COUNT>
0

> <PUBCHEM_BOND_UDEF_STEREO_COUNT>
0

> <PUBCHEM_ISOTOPIC_ATOM_COUNT>
0

> <PUBCHEM_COMPONENT_COUNT>
1

> <PUBCHEM_CACTVS_TAUTO_COUNT>
1

> <PUBCHEM_CONFORMER_ID>
000BB4BB00000001

> <PUBCHEM_MMFF94_ENERGY>
56.1873

> <PUBCHEM_FEATURE_SELFOVERLAP>
30.504

> <PUBCHEM_SHAPE_FINGERPRINT>
11128504 68 15123503727389836160
11287383 113 18413390951686308394
11401426 45 16225764120970721767
12107183 9 17467340128719778240
12236239 1 17240201023799685179
12507557 5 18186238441751448077
12596602 18 16805327721074096840
12670546 56 18115303371654391250
12969540 114 16988267725440707148
13214271 11 18412824698702453183
13533116 47 17822286826578971234
13583140 156 18343863329139674050
13760787 5 16558756672030056998
14341114 176 18335425651333177808
14911166 2 15985098613551993570
15209294 21 17604147025945726628
17349148 13 15719116868068138206
17844677 252 18410300190230445432
19489759 90 18186521003391300986
19784866 240 8718553848106098928
20645477 56 18335704897401170905
20645477 70 17274547503783328854
21033648 29 17845921970862028056
23227448 37 18129939117409057252
23402539 116 18187362151193048191
23557571 272 18341337708002014317
23559900 14 18053663573276297790
2916195 48 18409162234229330728
34797466 226 18202291316017264004
351380 180 18333732429344185396
3545911 37 18411140212481469422
441001 317 18408885105437776577
5104073 3 18189342268824392731

> <PUBCHEM_SHAPE_MULTIPOLES>
357.56
12.24
1.82
1
15.28
0.53
-0.14
3
1.6
-1.45
-0.04
0.04
-0.16
0.9

> <PUBCHEM_SHAPE_SELFOVERLAP>
745.499

> <PUBCHEM_SHAPE_VOLUME>
206.7

> <PUBCHEM_COORDINATE_TYPE>
2
5
10

$$$$
