2282209
  -OEChem-02101610513D

 51 54  0     0  0  0  0  0  0999 V2000
   -8.7699    3.0276   -0.4441 Cl  0  0  0  0  0  0  0  0  0  0  0  0
    0.5471    2.1306    1.6740 S   0  0  0  0  0  0  0  0  0  0  0  0
    8.8919    1.3950   -0.0760 O   0  0  0  0  0  0  0  0  0  0  0  0
    3.1257   -1.0998   -0.5073 O   0  0  0  0  0  0  0  0  0  0  0  0
    7.8282   -2.5423   -0.1554 O   0  5  0  0  0  0  0  0  0  0  0  0
    9.4085   -1.0186   -0.1565 O   0  0  0  0  0  0  0  0  0  0  0  0
   -5.1186   -0.4980   -0.0214 N   0  0  0  0  0  0  0  0  0  0  0  0
   -4.2240    0.4934   -0.0328 N   0  0  0  0  0  0  0  0  0  0  0  0
   -4.6956   -1.7606    0.0804 N   0  0  0  0  0  0  0  0  0  0  0  0
    0.5836   -0.2711    0.2820 N   0  0  0  0  0  0  0  0  0  0  0  0
    2.6242    0.8725    0.6546 N   0  0  0  0  0  0  0  0  0  0  0  0
    8.1981   -1.3445   -0.1325 N   0  3  0  0  0  0  0  0  0  0  0  0
   -3.0619   -0.1717    0.0728 C   0  0  0  0  0  0  0  0  0  0  0  0
   -3.3626   -1.6090    0.1454 C   0  0  0  0  0  0  0  0  0  0  0  0
   -6.4801   -0.2179   -0.1148 C   0  0  0  0  0  0  0  0  0  0  0  0
   -0.7554   -0.6716    0.2322 C   0  0  0  0  0  0  0  0  0  0  0  0
   -1.7447    0.3219    0.1154 C   0  0  0  0  0  0  0  0  0  0  0  0
   -2.3522   -2.5817    0.2619 C   0  0  0  0  0  0  0  0  0  0  0  0
   -1.0460   -2.0605    0.3021 C   0  0  0  0  0  0  0  0  0  0  0  0
   -6.9050    1.1012   -0.2198 C   0  0  0  0  0  0  0  0  0  0  0  0
   -7.3984   -1.2609   -0.1014 C   0  0  0  0  0  0  0  0  0  0  0  0
   -9.1965    0.3402   -0.3004 C   0  0  0  0  0  0  0  0  0  0  0  0
   -8.2682    1.3812   -0.3130 C   0  0  0  0  0  0  0  0  0  0  0  0
   -8.7616   -0.9810   -0.1945 C   0  0  0  0  0  0  0  0  0  0  0  0
    4.9119    0.3226    0.0015 C   0  0  0  0  0  0  0  0  0  0  0  0
    1.2248    0.8519    0.8240 C   0  0  0  0  0  0  0  0  0  0  0  0
    5.8629   -0.6759   -0.0514 C   0  0  0  0  0  0  0  0  0  0  0  0
    7.2118   -0.3216   -0.0780 C   0  0  0  0  0  0  0  0  0  0  0  0
  -10.6654    0.5983   -0.3994 C   0  0  0  0  0  0  0  0  0  0  0  0
    7.5803    1.0235   -0.0511 C   0  0  0  0  0  0  0  0  0  0  0  0
    3.4758   -0.0531    0.0297 C   0  0  0  0  0  0  0  0  0  0  0  0
    5.2509    1.6599    0.0290 C   0  0  0  0  0  0  0  0  0  0  0  0
    6.5998    2.0142    0.0023 C   0  0  0  0  0  0  0  0  0  0  0  0
    9.4804    1.6058   -1.3573 C   0  0  0  0  0  0  0  0  0  0  0  0
   -1.5537    1.3775   -0.0051 H   0  0  0  0  0  0  0  0  0  0  0  0
   -2.5523   -3.6441    0.3171 H   0  0  0  0  0  0  0  0  0  0  0  0
   -0.2235   -2.7703    0.3934 H   0  0  0  0  0  0  0  0  0  0  0  0
   -6.2022    1.9310   -0.2321 H   0  0  0  0  0  0  0  0  0  0  0  0
   -7.1025   -2.3033   -0.0206 H   0  0  0  0  0  0  0  0  0  0  0  0
   -9.4706   -1.8047   -0.1834 H   0  0  0  0  0  0  0  0  0  0  0  0
    1.2261   -1.0286    0.0631 H   0  0  0  0  0  0  0  0  0  0  0  0
    5.5528   -1.7173   -0.0651 H   0  0  0  0  0  0  0  0  0  0  0  0
  -10.9051    1.1007   -1.3424 H   0  0  0  0  0  0  0  0  0  0  0  0
  -11.2457   -0.3307   -0.3726 H   0  0  0  0  0  0  0  0  0  0  0  0
  -11.0053    1.2145    0.4395 H   0  0  0  0  0  0  0  0  0  0  0  0
    4.5229    2.4642    0.0281 H   0  0  0  0  0  0  0  0  0  0  0  0
    3.0534    1.6760    1.1035 H   0  0  0  0  0  0  0  0  0  0  0  0
    6.8796    3.0642    0.0149 H   0  0  0  0  0  0  0  0  0  0  0  0
   10.5678    1.5719   -1.2472 H   0  0  0  0  0  0  0  0  0  0  0  0
    9.1988    2.5956   -1.7297 H   0  0  0  0  0  0  0  0  0  0  0  0
    9.1746    0.8437   -2.0819 H   0  0  0  0  0  0  0  0  0  0  0  0
  1 23  1  0  0  0  0
  2 26  2  0  0  0  0
  3 30  1  0  0  0  0
  3 34  1  0  0  0  0
  4 31  2  0  0  0  0
  5 12  1  0  0  0  0
  6 12  2  0  0  0  0
  7  8  1  0  0  0  0
  7  9  1  0  0  0  0
  7 15  1  0  0  0  0
  8 13  2  0  0  0  0
  9 14  2  0  0  0  0
 10 16  1  0  0  0  0
 10 26  1  0  0  0  0
 10 41  1  0  0  0  0
 11 26  1  0  0  0  0
 11 31  1  0  0  0  0
 11 47  1  0  0  0  0
 12 28  1  0  0  0  0
 13 14  1  0  0  0  0
 13 17  1  0  0  0  0
 14 18  1  0  0  0  0
 15 20  2  0  0  0  0
 15 21  1  0  0  0  0
 16 17  2  0  0  0  0
 16 19  1  0  0  0  0
 17 35  1  0  0  0  0
 18 19  2  0  0  0  0
 18 36  1  0  0  0  0
 19 37  1  0  0  0  0
 20 23  1  0  0  0  0
 20 38  1  0  0  0  0
 21 24  2  0  0  0  0
 21 39  1  0  0  0  0
 22 23  2  0  0  0  0
 22 24  1  0  0  0  0
 22 29  1  0  0  0  0
 24 40  1  0  0  0  0
 25 27  2  0  0  0  0
 25 31  1  0  0  0  0
 25 32  1  0  0  0  0
 27 28  1  0  0  0  0
 27 42  1  0  0  0  0
 28 30  2  0  0  0  0
 29 43  1  0  0  0  0
 29 44  1  0  0  0  0
 29 45  1  0  0  0  0
 30 33  1  0  0  0  0
 32 33  2  0  0  0  0
 32 46  1  0  0  0  0
 33 48  1  0  0  0  0
 34 49  1  0  0  0  0
 34 50  1  0  0  0  0
 34 51  1  0  0  0  0
M  CHG  2   5  -1  12   1
M  END
> <PUBCHEM_COMPOUND_CID>
2282209

> <PUBCHEM_CONFORMER_RMSD>
1

> <PUBCHEM_CONFORMER_DIVERSEORDER>
1
58
49
67
38
27
26
56
51
42
53
21
29
73
65
69
66
20
14
57
45
44
6
59
68
47
72
36
52
41
11
55
23
28
19
54
48
37
70
64
50
25
60
22
46
71
34
13
30
43
61
24
40
63
12
5
32
18
39
15
3
62
9
7
31
17
10
16
4
35
8
33
2

> <PUBCHEM_MMFF94_PARTIAL_CHARGES>
45
1 -0.18
10 -0.55
11 -0.49
12 0.91
13 0.29
14 0.29
15 -0.02
16 0.12
17 -0.15
18 -0.15
19 -0.15
2 -0.38
20 -0.15
21 -0.15
22 -0.14
23 0.18
24 -0.15
25 0.09
26 0.5
27 -0.15
28 0.13
29 0.14
3 -0.36
30 0.08
31 0.54
32 -0.15
33 -0.15
34 0.28
35 0.15
36 0.15
37 0.15
38 0.15
39 0.15
4 -0.57
40 0.15
41 0.37
42 0.15
46 0.15
47 0.37
48 0.15
5 -0.52
6 -0.52
7 0.86
8 -0.71
9 -0.71

> <PUBCHEM_EFFECTIVE_ROTOR_COUNT>
8

> <PUBCHEM_PHARMACOPHORE_FEATURES>
14
1 10 donor
1 11 donor
1 2 acceptor
1 3 acceptor
1 4 acceptor
1 5 acceptor
1 5 anion
1 6 acceptor
1 8 acceptor
1 9 acceptor
5 7 8 9 13 14 rings
6 13 14 16 17 18 19 rings
6 15 20 21 22 23 24 rings
6 25 27 28 30 32 33 rings

> <PUBCHEM_HEAVY_ATOM_COUNT>
34

> <PUBCHEM_ATOM_DEF_STEREO_COUNT>
0

> <PUBCHEM_ATOM_UDEF_STEREO_COUNT>
0

> <PUBCHEM_BOND_DEF_STEREO_COUNT>
0

> <PUBCHEM_BOND_UDEF_STEREO_COUNT>
0

> <PUBCHEM_ISOTOPIC_ATOM_COUNT>
0

> <PUBCHEM_COMPONENT_COUNT>
1

> <PUBCHEM_CACTVS_TAUTO_COUNT>
8

> <PUBCHEM_CONFORMER_ID>
0022D2E100000001

> <PUBCHEM_MMFF94_ENERGY>
136.663

> <PUBCHEM_FEATURE_SELFOVERLAP>
71.373

> <PUBCHEM_SHAPE_FINGERPRINT>
10165383 225 18335136497561518851
106641 1 9295286144693987330
10674148 151 18261106387441075232
11061554 47 18334004008389809420
11408170 108 16056329332471285494
11672396 167 18199470966589548630
11719270 70 17989208145094565622
12089408 11 18334856121236722930
12522641 33 18131070424791106407
12758862 11 18272649094890526185
13811026 1 18272374152637849071
13947947 74 18343584048901613464
14040221 8 18187937149331705660
14117953 113 17632303389041182372
14118638 360 16200163053764783775
14251764 46 18410573989451712702
15183329 4 18413671309470271714
15247644 1 15123795088922593764
15289351 153 18272644615777673817
15439362 3 17981601882098377192
15461852 350 18059852913908704151
15510794 2 18260833721537584699
15773216 30 17749664074516198074
15840311 113 18040437728436591836
15890870 6 18342458144621149542
1754911 235 18408036317269044167
21585482 111 18188203184165276717
21792934 111 18060411427166053776
21895431 317 13038638314711952140
232437 2 18413389847879745783
23559900 14 18200305670752564945
24771293 8 18261112963906397925
249057 3 17822292426324488780
3004659 81 18335137610090041154
3092352 35 17530683221577782563
335352 9 18342454863930123813
4017518 198 16128381501453705630
4073 2 17968663843401972538
42767 2 18413107268558233935
439807 62 18343021095486602848
44280117 145 18263927820937611711
4625314 4 18411699915207519535
58083652 198 17274546533141416712
5937810 71 18059298652948877561
59682541 35 11314310559518542141
6009941 240 17967537903764069635
6081469 158 18413108351486292420
6691757 9 15554173666167822551
67123 10 18409448098667587167
9663363 56 17203608199539614552
99344 41 18410575089301613471
9980921 7 17749944464147720037

> <PUBCHEM_SHAPE_MULTIPOLES>
652.06
39.11
2.48
0.83
0.73
0.13
0.12
10.42
-10.34
-0.54
0.07
0.5
0.36
0.38

> <PUBCHEM_SHAPE_SELFOVERLAP>
1408.448

> <PUBCHEM_SHAPE_VOLUME>
362.1

> <PUBCHEM_COORDINATE_TYPE>
2
5
10

$$$$
