12649
  -OEChem-02101610523D

 24 24  0     0  0  0  0  0  0999 V2000
   -3.0876    1.4181    0.0613 O   0  0  0  0  0  0  0  0  0  0  0  0
   -2.9588   -1.2201   -0.5275 O   0  0  0  0  0  0  0  0  0  0  0  0
    2.6566   -0.3483   -0.0339 C   0  0  0  0  0  0  0  0  0  0  0  0
    1.1755   -0.1258    0.1391 C   0  0  0  0  0  0  0  0  0  0  0  0
    3.0553   -0.0918   -1.4806 C   0  0  0  0  0  0  0  0  0  0  0  0
    3.4439    0.5394    0.9212 C   0  0  0  0  0  0  0  0  0  0  0  0
    0.6452    1.0861   -0.0809 C   0  0  0  0  0  0  0  0  0  0  0  0
    0.4435   -1.2979    0.5656 C   0  0  0  0  0  0  0  0  0  0  0  0
   -0.7242    1.5090    0.0571 C   0  0  0  0  0  0  0  0  0  0  0  0
   -0.8611   -1.5604    0.4467 C   0  0  0  0  0  0  0  0  0  0  0  0
   -1.8519    0.7862    0.0186 C   0  0  0  0  0  0  0  0  0  0  0  0
   -1.9365   -0.6944   -0.0869 C   0  0  0  0  0  0  0  0  0  0  0  0
    2.9255   -1.3882    0.1932 H   0  0  0  0  0  0  0  0  0  0  0  0
    2.9367    0.9570   -1.7740 H   0  0  0  0  0  0  0  0  0  0  0  0
    2.4656   -0.7060   -2.1708 H   0  0  0  0  0  0  0  0  0  0  0  0
    4.1096   -0.3498   -1.6338 H   0  0  0  0  0  0  0  0  0  0  0  0
    3.1289    0.3831    1.9592 H   0  0  0  0  0  0  0  0  0  0  0  0
    3.3413    1.6055    0.6921 H   0  0  0  0  0  0  0  0  0  0  0  0
    4.5123    0.3010    0.8646 H   0  0  0  0  0  0  0  0  0  0  0  0
    1.2980    1.9025   -0.3859 H   0  0  0  0  0  0  0  0  0  0  0  0
    1.0454   -2.0931    1.0042 H   0  0  0  0  0  0  0  0  0  0  0  0
   -0.8315    2.5913    0.1315 H   0  0  0  0  0  0  0  0  0  0  0  0
   -1.2059   -2.5445    0.7600 H   0  0  0  0  0  0  0  0  0  0  0  0
   -3.7762    0.7322    0.0211 H   0  0  0  0  0  0  0  0  0  0  0  0
  1 11  1  0  0  0  0
  1 24  1  0  0  0  0
  2 12  2  0  0  0  0
  3  4  1  0  0  0  0
  3  5  1  0  0  0  0
  3  6  1  0  0  0  0
  3 13  1  0  0  0  0
  4  7  2  0  0  0  0
  4  8  1  0  0  0  0
  5 14  1  0  0  0  0
  5 15  1  0  0  0  0
  5 16  1  0  0  0  0
  6 17  1  0  0  0  0
  6 18  1  0  0  0  0
  6 19  1  0  0  0  0
  7  9  1  0  0  0  0
  7 20  1  0  0  0  0
  8 10  2  0  0  0  0
  8 21  1  0  0  0  0
  9 11  2  0  0  0  0
  9 22  1  0  0  0  0
 10 12  1  0  0  0  0
 10 23  1  0  0  0  0
 11 12  1  0  0  0  0
M  END
> <PUBCHEM_COMPOUND_CID>
12649

> <PUBCHEM_CONFORMER_RMSD>
0.4

> <PUBCHEM_CONFORMER_DIVERSEORDER>
3
5
6
2
1
4

> <PUBCHEM_MMFF94_PARTIAL_CHARGES>
15
1 -0.53
10 -0.14
11 0.09
12 0.54
2 -0.57
20 0.15
21 0.15
22 0.15
23 0.15
24 0.45
3 0.14
4 -0.14
7 -0.15
8 -0.15
9 -0.15

> <PUBCHEM_EFFECTIVE_ROTOR_COUNT>
1

> <PUBCHEM_PHARMACOPHORE_FEATURES>
4
1 1 donor
1 2 acceptor
3 3 5 6 hydrophobe
7 4 7 8 9 10 11 12 rings

> <PUBCHEM_HEAVY_ATOM_COUNT>
12

> <PUBCHEM_ATOM_DEF_STEREO_COUNT>
0

> <PUBCHEM_ATOM_UDEF_STEREO_COUNT>
0

> <PUBCHEM_BOND_DEF_STEREO_COUNT>
0

> <PUBCHEM_BOND_UDEF_STEREO_COUNT>
0

> <PUBCHEM_ISOTOPIC_ATOM_COUNT>
0

> <PUBCHEM_COMPONENT_COUNT>
1

> <PUBCHEM_CACTVS_TAUTO_COUNT>
3

> <PUBCHEM_CONFORMER_ID>
0000316900000003

> <PUBCHEM_MMFF94_ENERGY>
36.7861

> <PUBCHEM_FEATURE_SELFOVERLAP>
20.297

> <PUBCHEM_SHAPE_FINGERPRINT>
10353120 184 18335706091133209863
11132069 177 18411413994950401808
11206711 2 18335134310890324719
12716758 59 18341620265399913862
12897270 3 18343022159852404566
12932764 1 18202010923351420514
13380535 21 18267316334894576227
14325111 11 18410290298535705952
15219456 202 17918273156263945792
15310529 11 15339125645097630538
15775835 57 18261957349337752864
16945 1 18334862761250900858
18186145 218 18201160957802700488
20201158 50 18060421283530318046
20279233 1 17918274234073896940
20645464 45 18201712959984451344
20645476 183 17604163591819417982
20871998 184 18202002165907758039
22802520 49 18129676183558321414
23380061 330 18411128164797510800
23402539 116 18269817865339152902
23402655 69 18194099852013114813
23552423 10 18261113005948592012
23557571 272 18131353059186647642
23559900 14 18341615881150914910
2748010 2 17759523661295311475
3248919 1 17603587439146896490
528886 8 18336260159131030529
53812653 166 18341323422851045881
6333449 129 18343014497593825208
7364860 26 18124870153999018946
77492 1 17530682121770313322
8030462 33 18260269655066492490

> <PUBCHEM_SHAPE_MULTIPOLES>
235.22
5.11
1.62
0.93
1.27
0.01
0.19
-0.43
0.52
-1.03
-0.14
0.78
0.05
0.01

> <PUBCHEM_SHAPE_SELFOVERLAP>
480.512

> <PUBCHEM_SHAPE_VOLUME>
135.4

> <PUBCHEM_COORDINATE_TYPE>
2
5
10

$$$$
