53277
  -OEChem-02101610523D

 66 71  0     1  0  0  0  0  0999 V2000
    2.9358   -1.6209    1.8931 O   0  0  0  0  0  0  0  0  0  0  0  0
   -2.9357   -1.6207   -1.8933 O   0  0  0  0  0  0  0  0  0  0  0  0
    4.7672    0.1722   -2.1909 O   0  0  0  0  0  0  0  0  0  0  0  0
   -4.7673    0.1720    2.1909 O   0  0  0  0  0  0  0  0  0  0  0  0
    6.0052   -1.5488   -0.8260 O   0  0  0  0  0  0  0  0  0  0  0  0
   -6.0052   -1.5489    0.8259 O   0  0  0  0  0  0  0  0  0  0  0  0
   -0.6619    3.4855   -1.7112 O   0  0  0  0  0  0  0  0  0  0  0  0
    0.6619    3.4854    1.7114 O   0  0  0  0  0  0  0  0  0  0  0  0
    3.4444    1.9669   -3.4510 O   0  0  0  0  0  0  0  0  0  0  0  0
   -3.4445    1.9666    3.4511 O   0  0  0  0  0  0  0  0  0  0  0  0
    5.1717   -2.4101    1.2608 C   0  0  1  0  0  0  0  0  0  0  0  0
   -5.1717   -2.4099   -1.2609 C   0  0  1  0  0  0  0  0  0  0  0  0
    3.7388   -2.7873    1.6630 C   0  0  1  0  0  0  0  0  0  0  0  0
   -3.7387   -2.7872   -1.6631 C   0  0  1  0  0  0  0  0  0  0  0  0
    3.8913   -0.7341   -0.1638 C   0  0  0  0  0  0  0  0  0  0  0  0
   -3.8912   -0.7342    0.1637 C   0  0  0  0  0  0  0  0  0  0  0  0
    1.6478    0.9383   -0.3768 C   0  0  0  0  0  0  0  0  0  0  0  0
   -1.6478    0.9383    0.3768 C   0  0  0  0  0  0  0  0  0  0  0  0
    0.5334    1.7846   -0.4960 C   0  0  0  0  0  0  0  0  0  0  0  0
   -0.5335    1.7846    0.4962 C   0  0  0  0  0  0  0  0  0  0  0  0
    2.8882   -0.7895    0.8037 C   0  0  0  0  0  0  0  0  0  0  0  0
   -2.8882   -0.7894   -0.8038 C   0  0  0  0  0  0  0  0  0  0  0  0
    5.0977   -1.5751   -0.0022 C   0  0  0  0  0  0  0  0  0  0  0  0
   -5.0977   -1.5751    0.0021 C   0  0  0  0  0  0  0  0  0  0  0  0
    2.6566    0.9781   -1.3692 C   0  0  0  0  0  0  0  0  0  0  0  0
   -2.6566    0.9780    1.3692 C   0  0  0  0  0  0  0  0  0  0  0  0
    3.7766    0.1382   -1.2498 C   0  0  0  0  0  0  0  0  0  0  0  0
   -3.7766    0.1381    1.2498 C   0  0  0  0  0  0  0  0  0  0  0  0
    1.7804    0.0539    0.7063 C   0  0  0  0  0  0  0  0  0  0  0  0
   -1.7804    0.0540   -0.7062 C   0  0  0  0  0  0  0  0  0  0  0  0
    5.9496   -1.6322    2.3200 C   0  0  0  0  0  0  0  0  0  0  0  0
   -5.9496   -1.6320   -2.3201 C   0  0  0  0  0  0  0  0  0  0  0  0
    3.6832   -3.6363    2.9288 C   0  0  0  0  0  0  0  0  0  0  0  0
   -3.6832   -3.6360   -2.9291 C   0  0  0  0  0  0  0  0  0  0  0  0
    0.4139    2.6571   -1.5780 C   0  0  0  0  0  0  0  0  0  0  0  0
   -0.4139    2.6569    1.5782 C   0  0  0  0  0  0  0  0  0  0  0  0
    2.5197    1.8634   -2.4508 C   0  0  0  0  0  0  0  0  0  0  0  0
   -2.5197    1.8632    2.4509 C   0  0  0  0  0  0  0  0  0  0  0  0
    1.4052    2.6963   -2.5537 C   0  0  0  0  0  0  0  0  0  0  0  0
   -1.4052    2.6961    2.5539 C   0  0  0  0  0  0  0  0  0  0  0  0
    5.7166   -3.3301    1.0146 H   0  0  0  0  0  0  0  0  0  0  0  0
   -5.7167   -3.3300   -1.0148 H   0  0  0  0  0  0  0  0  0  0  0  0
    3.2701   -3.3702    0.8561 H   0  0  0  0  0  0  0  0  0  0  0  0
   -3.2700   -3.3701   -0.8564 H   0  0  0  0  0  0  0  0  0  0  0  0
    1.0297   -0.0107    1.4905 H   0  0  0  0  0  0  0  0  0  0  0  0
   -1.0297   -0.0104   -1.4904 H   0  0  0  0  0  0  0  0  0  0  0  0
    6.1326   -2.2466    3.2067 H   0  0  0  0  0  0  0  0  0  0  0  0
    6.9246   -1.3175    1.9311 H   0  0  0  0  0  0  0  0  0  0  0  0
    5.4188   -0.7273    2.6345 H   0  0  0  0  0  0  0  0  0  0  0  0
   -5.4188   -0.7271   -2.6345 H   0  0  0  0  0  0  0  0  0  0  0  0
   -6.1326   -2.2464   -3.2068 H   0  0  0  0  0  0  0  0  0  0  0  0
   -6.9245   -1.3173   -1.9312 H   0  0  0  0  0  0  0  0  0  0  0  0
    3.9963   -3.0668    3.8100 H   0  0  0  0  0  0  0  0  0  0  0  0
    2.6524   -3.9541    3.1221 H   0  0  0  0  0  0  0  0  0  0  0  0
    4.3088   -4.5293    2.8384 H   0  0  0  0  0  0  0  0  0  0  0  0
   -3.9963   -3.0664   -3.8102 H   0  0  0  0  0  0  0  0  0  0  0  0
   -2.6525   -3.9538   -3.1225 H   0  0  0  0  0  0  0  0  0  0  0  0
   -4.3089   -4.5289   -2.8388 H   0  0  0  0  0  0  0  0  0  0  0  0
    1.3101    3.3773   -3.3962 H   0  0  0  0  0  0  0  0  0  0  0  0
   -1.3178    3.3741    3.3998 H   0  0  0  0  0  0  0  0  0  0  0  0
    5.2931   -0.6418   -2.1646 H   0  0  0  0  0  0  0  0  0  0  0  0
   -5.2929   -0.6422    2.1646 H   0  0  0  0  0  0  0  0  0  0  0  0
   -1.2986    3.3695   -0.9896 H   0  0  0  0  0  0  0  0  0  0  0  0
    0.5636    4.0109    2.5237 H   0  0  0  0  0  0  0  0  0  0  0  0
    4.1482    1.3109   -3.3424 H   0  0  0  0  0  0  0  0  0  0  0  0
   -4.1483    1.3108    3.3423 H   0  0  0  0  0  0  0  0  0  0  0  0
  1 13  1  0  0  0  0
  1 21  1  0  0  0  0
  2 14  1  0  0  0  0
  2 22  1  0  0  0  0
  3 27  1  0  0  0  0
  3 61  1  0  0  0  0
  4 28  1  0  0  0  0
  4 62  1  0  0  0  0
  5 23  2  0  0  0  0
  6 24  2  0  0  0  0
  7 35  1  0  0  0  0
  7 63  1  0  0  0  0
  8 36  1  0  0  0  0
  8 64  1  0  0  0  0
  9 37  1  0  0  0  0
  9 65  1  0  0  0  0
 10 38  1  0  0  0  0
 10 66  1  0  0  0  0
 11 13  1  0  0  0  0
 11 23  1  0  0  0  0
 11 31  1  0  0  0  0
 11 41  1  0  0  0  0
 12 14  1  0  0  0  0
 12 24  1  0  0  0  0
 12 32  1  0  0  0  0
 12 42  1  0  0  0  0
 13 33  1  0  0  0  0
 13 43  1  0  0  0  0
 14 34  1  0  0  0  0
 14 44  1  0  0  0  0
 15 21  2  0  0  0  0
 15 23  1  0  0  0  0
 15 27  1  0  0  0  0
 16 22  2  0  0  0  0
 16 24  1  0  0  0  0
 16 28  1  0  0  0  0
 17 19  1  0  0  0  0
 17 25  1  0  0  0  0
 17 29  2  0  0  0  0
 18 20  1  0  0  0  0
 18 26  1  0  0  0  0
 18 30  2  0  0  0  0
 19 20  1  0  0  0  0
 19 35  2  0  0  0  0
 20 36  2  0  0  0  0
 21 29  1  0  0  0  0
 22 30  1  0  0  0  0
 25 27  2  0  0  0  0
 25 37  1  0  0  0  0
 26 28  2  0  0  0  0
 26 38  1  0  0  0  0
 29 45  1  0  0  0  0
 30 46  1  0  0  0  0
 31 47  1  0  0  0  0
 31 48  1  0  0  0  0
 31 49  1  0  0  0  0
 32 50  1  0  0  0  0
 32 51  1  0  0  0  0
 32 52  1  0  0  0  0
 33 53  1  0  0  0  0
 33 54  1  0  0  0  0
 33 55  1  0  0  0  0
 34 56  1  0  0  0  0
 34 57  1  0  0  0  0
 34 58  1  0  0  0  0
 35 39  1  0  0  0  0
 36 40  1  0  0  0  0
 37 39  2  0  0  0  0
 38 40  2  0  0  0  0
 39 59  1  0  0  0  0
 40 60  1  0  0  0  0
M  END
> <PUBCHEM_COMPOUND_CID>
53277

> <PUBCHEM_CONFORMER_RMSD>
0.8

> <PUBCHEM_CONFORMER_DIVERSEORDER>
1
3
4
2

> <PUBCHEM_MMFF94_PARTIAL_CHARGES>
40
1 -0.36
10 -0.53
11 0.06
12 0.06
13 0.28
14 0.28
15 0.09
16 0.09
2 -0.36
21 0.08
22 0.08
23 0.42
24 0.42
27 0.08
28 0.08
29 -0.15
3 -0.53
30 -0.15
35 0.08
36 0.08
37 0.08
38 0.08
39 -0.15
4 -0.53
40 -0.15
45 0.15
46 0.15
5 -0.57
59 0.15
6 -0.57
60 0.15
61 0.45
62 0.45
63 0.45
64 0.45
65 0.45
66 0.45
7 -0.53
8 -0.53
9 -0.53

> <PUBCHEM_EFFECTIVE_ROTOR_COUNT>
2.2

> <PUBCHEM_PHARMACOPHORE_FEATURES>
16
1 1 acceptor
1 10 donor
1 2 acceptor
1 3 donor
1 4 donor
1 5 acceptor
1 6 acceptor
1 7 donor
1 8 donor
1 9 donor
6 1 11 13 15 21 23 rings
6 15 17 21 25 27 29 rings
6 16 18 22 26 28 30 rings
6 17 19 25 35 37 39 rings
6 18 20 26 36 38 40 rings
6 2 12 14 16 22 24 rings

> <PUBCHEM_HEAVY_ATOM_COUNT>
40

> <PUBCHEM_ATOM_DEF_STEREO_COUNT>
0

> <PUBCHEM_ATOM_UDEF_STEREO_COUNT>
4

> <PUBCHEM_BOND_DEF_STEREO_COUNT>
0

> <PUBCHEM_BOND_UDEF_STEREO_COUNT>
0

> <PUBCHEM_ISOTOPIC_ATOM_COUNT>
0

> <PUBCHEM_COMPONENT_COUNT>
1

> <PUBCHEM_CACTVS_TAUTO_COUNT>
996

> <PUBCHEM_CONFORMER_ID>
0000D01D00000001

> <PUBCHEM_MMFF94_ENERGY>
151.425

> <PUBCHEM_FEATURE_SELFOVERLAP>
81.342

> <PUBCHEM_SHAPE_FINGERPRINT>
10622 236 18261948548886979594
10928967 22 18410566288571018118
11135926 11 17387154090531997724
11377469 6 18336563645615010733
11534866 41 16614180098771926887
11578080 2 18410565189101984652
11720765 8 17895737586920559756
11763715 3 18340494374568907152
12128747 34 14619697534944634835
12633046 712 18042413602798404779
12788726 201 18129685083015116113
13911987 19 16953413310236383404
14068700 675 18341316860204294698
14508693 111 18059016218901774943
14674994 50 18049422769759691725
14705955 166 15697452026662137987
14747281 78 15864899929922178039
15320294 125 18341901740867520863
17909252 39 17749095712723920596
19315092 285 18410564090301513616
20511986 3 18338816562083782784
20775530 9 18337096925902702698
208703 8 18411429418183678311
21033648 29 15338850763317731719
21458453 9 15553300687466599762
25222932 49 17197120173769358623
3882209 13 16084710940009036962
4015057 19 17168147831792064145
4394409 98 18201708528306404079
44880168 125 17763466119588868214
46194498 28 15720258221013916294
463206 1 18340762758058258611
4756261 7 15047186775023578311
50009960 94 17341499176212498479
50150288 127 17620246208438756819
5223283 242 16878493537086068495
581034 39 17916033360399225294
59025328 239 18040985250703533268
613672 6 17313380068469515538
6677587 24 16524088220008109127
6823239 73 16700636681768385309
70251023 43 17894355483545480164
86090 222 16104723644756877787

> <PUBCHEM_SHAPE_MULTIPOLES>
764.49
13.1
4.41
3.57
0
0.18
0
14.5
0
0
0
0
-0.89
-7.05

> <PUBCHEM_SHAPE_SELFOVERLAP>
1746.5

> <PUBCHEM_SHAPE_VOLUME>
394.5

> <PUBCHEM_COORDINATE_TYPE>
2
5
10

$$$$
