72605
  -OEChem-02101610523D

 25 25  0     0  0  0  0  0  0999 V2000
    2.9648    1.0051    0.6292 O   0  0  0  0  0  0  0  0  0  0  0  0
    2.9003   -1.6847    0.3164 O   0  0  0  0  0  0  0  0  0  0  0  0
    0.9789    2.5039   -0.4823 O   0  0  0  0  0  0  0  0  0  0  0  0
   -2.7316   -0.4459    0.1171 C   0  0  0  0  0  0  0  0  0  0  0  0
   -1.2598   -0.2504   -0.1428 C   0  0  0  0  0  0  0  0  0  0  0  0
   -3.0288   -0.2528    1.5979 C   0  0  0  0  0  0  0  0  0  0  0  0
   -3.5557    0.5068   -0.7397 C   0  0  0  0  0  0  0  0  0  0  0  0
   -0.6982    0.9535    0.0386 C   0  0  0  0  0  0  0  0  0  0  0  0
   -0.5910   -1.4177   -0.6728 C   0  0  0  0  0  0  0  0  0  0  0  0
    0.7173    1.3433   -0.1677 C   0  0  0  0  0  0  0  0  0  0  0  0
    0.7123   -1.7122   -0.6200 C   0  0  0  0  0  0  0  0  0  0  0  0
    1.8166    0.3913    0.1467 C   0  0  0  0  0  0  0  0  0  0  0  0
    1.7751   -0.9402   -0.0205 C   0  0  0  0  0  0  0  0  0  0  0  0
   -3.0410   -1.4666   -0.1436 H   0  0  0  0  0  0  0  0  0  0  0  0
   -2.8432    0.7733    1.9344 H   0  0  0  0  0  0  0  0  0  0  0  0
   -2.4231   -0.9260    2.2152 H   0  0  0  0  0  0  0  0  0  0  0  0
   -4.0815   -0.4757    1.8063 H   0  0  0  0  0  0  0  0  0  0  0  0
   -3.3004    0.4101   -1.8011 H   0  0  0  0  0  0  0  0  0  0  0  0
   -3.4302    1.5562   -0.4528 H   0  0  0  0  0  0  0  0  0  0  0  0
   -4.6225    0.2756   -0.6389 H   0  0  0  0  0  0  0  0  0  0  0  0
   -1.3134    1.7918    0.3592 H   0  0  0  0  0  0  0  0  0  0  0  0
   -1.2281   -2.1386   -1.1834 H   0  0  0  0  0  0  0  0  0  0  0  0
    1.0194   -2.6477   -1.0862 H   0  0  0  0  0  0  0  0  0  0  0  0
    3.6263    0.3118    0.7987 H   0  0  0  0  0  0  0  0  0  0  0  0
    2.7169   -2.6271    0.1635 H   0  0  0  0  0  0  0  0  0  0  0  0
  1 12  1  0  0  0  0
  1 24  1  0  0  0  0
  2 13  1  0  0  0  0
  2 25  1  0  0  0  0
  3 10  2  0  0  0  0
  4  5  1  0  0  0  0
  4  6  1  0  0  0  0
  4  7  1  0  0  0  0
  4 14  1  0  0  0  0
  5  8  2  0  0  0  0
  5  9  1  0  0  0  0
  6 15  1  0  0  0  0
  6 16  1  0  0  0  0
  6 17  1  0  0  0  0
  7 18  1  0  0  0  0
  7 19  1  0  0  0  0
  7 20  1  0  0  0  0
  8 10  1  0  0  0  0
  8 21  1  0  0  0  0
  9 11  2  0  0  0  0
  9 22  1  0  0  0  0
 10 12  1  0  0  0  0
 11 13  1  0  0  0  0
 11 23  1  0  0  0  0
 12 13  2  0  0  0  0
M  END
> <PUBCHEM_COMPOUND_CID>
72605

> <PUBCHEM_CONFORMER_RMSD>
0.4

> <PUBCHEM_CONFORMER_DIVERSEORDER>
1
6
2
5
3
4

> <PUBCHEM_MMFF94_PARTIAL_CHARGES>
16
1 -0.53
10 0.54
11 -0.15
12 0.09
13 0.08
2 -0.53
21 0.15
22 0.15
23 0.15
24 0.45
25 0.45
3 -0.57
4 0.14
5 -0.14
8 -0.14
9 -0.15

> <PUBCHEM_EFFECTIVE_ROTOR_COUNT>
1

> <PUBCHEM_PHARMACOPHORE_FEATURES>
5
1 1 donor
1 2 donor
1 3 acceptor
3 4 6 7 hydrophobe
7 5 8 9 10 11 12 13 rings

> <PUBCHEM_HEAVY_ATOM_COUNT>
13

> <PUBCHEM_ATOM_DEF_STEREO_COUNT>
0

> <PUBCHEM_ATOM_UDEF_STEREO_COUNT>
0

> <PUBCHEM_BOND_DEF_STEREO_COUNT>
0

> <PUBCHEM_BOND_UDEF_STEREO_COUNT>
0

> <PUBCHEM_ISOTOPIC_ATOM_COUNT>
0

> <PUBCHEM_COMPONENT_COUNT>
1

> <PUBCHEM_CACTVS_TAUTO_COUNT>
25

> <PUBCHEM_CONFORMER_ID>
00011B9D00000001

> <PUBCHEM_MMFF94_ENERGY>
39.8016

> <PUBCHEM_FEATURE_SELFOVERLAP>
25.378

> <PUBCHEM_SHAPE_FINGERPRINT>
10219947 1 18413106143292665087
10980938 120 18411702114241382950
11471102 22 18262251017932196099
12382932 28 18270394013768909112
124424 183 17968934185047627575
12524768 44 18271812289137405102
12696612 119 18339654394428194495
13571099 22 18411694374921208261
14993402 34 18343581849809603910
15219456 202 18333169466674316485
15775835 57 17561091319086142553
16945 1 18336550520189335141
17990270 104 18334576871174261011
20201158 50 18335699373978477639
20645477 70 18339917126384202431
21130352 189 18336824199837352855
23463225 33 18410571756306154110
2748010 2 18267016168109378340
528862 383 18409728503669978834
63268167 104 18343016713876090739
81228 2 17759812441863751424

> <PUBCHEM_SHAPE_MULTIPOLES>
249.93
4.86
1.95
0.97
1.97
0.4
-0.25
-0.15
-0.95
-1.33
0.36
0.68
-0.06
0.14

> <PUBCHEM_SHAPE_SELFOVERLAP>
514.534

> <PUBCHEM_SHAPE_VOLUME>
142.9

> <PUBCHEM_COORDINATE_TYPE>
2
5
10

$$$$
