5355255
  -OEChem-02101610533D

 44 46  0     0  0  0  0  0  0999 V2000
   -2.8275    2.9232   -0.1796 O   0  0  0  0  0  0  0  0  0  0  0  0
   -2.1348   -2.5523   -0.0026 O   0  0  0  0  0  0  0  0  0  0  0  0
    0.3615   -2.1435    0.0327 O   0  0  0  0  0  0  0  0  0  0  0  0
   -0.2717    3.1595   -0.1375 O   0  0  0  0  0  0  0  0  0  0  0  0
    4.6826    2.5091   -0.0248 O   0  0  0  0  0  0  0  0  0  0  0  0
   -5.2339   -1.8948    0.9823 O   0  0  0  0  0  0  0  0  0  0  0  0
    3.0199   -2.4667    1.3510 O   0  0  0  0  0  0  0  0  0  0  0  0
    3.0999   -2.7241   -0.9059 O   0  0  0  0  0  0  0  0  0  0  0  0
    5.6458   -0.4817   -1.1749 O   0  0  0  0  0  0  0  0  0  0  0  0
    5.7858   -0.4858    1.0938 O   0  0  0  0  0  0  0  0  0  0  0  0
   -1.3144    1.0381   -0.0951 C   0  0  0  0  0  0  0  0  0  0  0  0
   -1.1386   -0.3465   -0.0501 C   0  0  0  0  0  0  0  0  0  0  0  0
    1.3868   -0.0245   -0.0104 C   0  0  0  0  0  0  0  0  0  0  0  0
   -3.7150    0.7304   -0.1332 C   0  0  0  0  0  0  0  0  0  0  0  0
    1.2109    1.3601   -0.0554 C   0  0  0  0  0  0  0  0  0  0  0  0
   -2.6060    1.5769   -0.1365 C   0  0  0  0  0  0  0  0  0  0  0  0
   -3.5394   -0.6513   -0.0884 C   0  0  0  0  0  0  0  0  0  0  0  0
    0.2184   -0.9285   -0.0058 C   0  0  0  0  0  0  0  0  0  0  0  0
   -0.1462    1.9420   -0.0994 C   0  0  0  0  0  0  0  0  0  0  0  0
   -2.2542   -1.1924   -0.0468 C   0  0  0  0  0  0  0  0  0  0  0  0
   -5.0937    1.3126   -0.1764 C   0  0  0  0  0  0  0  0  0  0  0  0
    2.6783   -0.5634    0.0309 C   0  0  0  0  0  0  0  0  0  0  0  0
    2.3266    2.2059   -0.0594 C   0  0  0  0  0  0  0  0  0  0  0  0
    3.7874    0.2830    0.0266 C   0  0  0  0  0  0  0  0  0  0  0  0
    3.6118    1.6647   -0.0184 C   0  0  0  0  0  0  0  0  0  0  0  0
   -4.7014   -1.5358   -0.0832 C   0  0  0  0  0  0  0  0  0  0  0  0
   -5.6495    1.5784    1.2178 C   0  0  0  0  0  0  0  0  0  0  0  0
    2.9490   -2.0005    0.0775 C   0  0  0  0  0  0  0  0  0  0  0  0
   -5.2840   -2.0372   -1.3966 C   0  0  0  0  0  0  0  0  0  0  0  0
    5.1456   -0.2546    0.0677 C   0  0  0  0  0  0  0  0  0  0  0  0
   -5.1194    2.2332   -0.7721 H   0  0  0  0  0  0  0  0  0  0  0  0
   -5.7841    0.6528   -0.7137 H   0  0  0  0  0  0  0  0  0  0  0  0
    2.2026    3.2855   -0.0948 H   0  0  0  0  0  0  0  0  0  0  0  0
   -5.7200    0.6583    1.8063 H   0  0  0  0  0  0  0  0  0  0  0  0
   -6.6541    2.0073    1.1453 H   0  0  0  0  0  0  0  0  0  0  0  0
   -5.0236    2.2812    1.7771 H   0  0  0  0  0  0  0  0  0  0  0  0
   -3.6538    3.1509    0.2739 H   0  0  0  0  0  0  0  0  0  0  0  0
   -1.2056   -2.8234    0.0031 H   0  0  0  0  0  0  0  0  0  0  0  0
   -5.1755   -3.1236   -1.4451 H   0  0  0  0  0  0  0  0  0  0  0  0
   -4.7569   -1.5914   -2.2447 H   0  0  0  0  0  0  0  0  0  0  0  0
   -6.3390   -1.7576   -1.4540 H   0  0  0  0  0  0  0  0  0  0  0  0
    4.3650    3.4277   -0.0587 H   0  0  0  0  0  0  0  0  0  0  0  0
    3.2019   -3.4303    1.3780 H   0  0  0  0  0  0  0  0  0  0  0  0
    6.5570   -0.8436   -1.1417 H   0  0  0  0  0  0  0  0  0  0  0  0
  1 16  1  0  0  0  0
  1 37  1  0  0  0  0
  2 20  1  0  0  0  0
  2 38  1  0  0  0  0
  3 18  2  0  0  0  0
  4 19  2  0  0  0  0
  5 25  1  0  0  0  0
  5 42  1  0  0  0  0
  6 26  2  0  0  0  0
  7 28  1  0  0  0  0
  7 43  1  0  0  0  0
  8 28  2  0  0  0  0
  9 30  1  0  0  0  0
  9 44  1  0  0  0  0
 10 30  2  0  0  0  0
 11 12  1  0  0  0  0
 11 16  2  0  0  0  0
 11 19  1  0  0  0  0
 12 18  1  0  0  0  0
 12 20  2  0  0  0  0
 13 15  1  0  0  0  0
 13 18  1  0  0  0  0
 13 22  2  0  0  0  0
 14 16  1  0  0  0  0
 14 17  2  0  0  0  0
 14 21  1  0  0  0  0
 15 19  1  0  0  0  0
 15 23  2  0  0  0  0
 17 20  1  0  0  0  0
 17 26  1  0  0  0  0
 21 27  1  0  0  0  0
 21 31  1  0  0  0  0
 21 32  1  0  0  0  0
 22 24  1  0  0  0  0
 22 28  1  0  0  0  0
 23 25  1  0  0  0  0
 23 33  1  0  0  0  0
 24 25  2  0  0  0  0
 24 30  1  0  0  0  0
 26 29  1  0  0  0  0
 27 34  1  0  0  0  0
 27 35  1  0  0  0  0
 27 36  1  0  0  0  0
 29 39  1  0  0  0  0
 29 40  1  0  0  0  0
 29 41  1  0  0  0  0
M  END
> <PUBCHEM_COMPOUND_CID>
5355255

> <PUBCHEM_CONFORMER_RMSD>
0.8

> <PUBCHEM_CONFORMER_DIVERSEORDER>
1
2

> <PUBCHEM_MMFF94_PARTIAL_CHARGES>
35
1 -0.53
10 -0.57
11 0.09
12 0.09
13 0.09
14 -0.14
15 0.09
16 0.08
17 0.09
18 0.4
19 0.4
2 -0.53
20 0.08
21 0.14
22 0.09
23 -0.15
24 0.09
25 0.08
26 0.42
28 0.63
29 0.06
3 -0.57
30 0.63
33 0.15
37 0.45
38 0.45
4 -0.57
42 0.45
43 0.5
44 0.5
5 -0.53
6 -0.57
7 -0.65
8 -0.57
9 -0.65

> <PUBCHEM_EFFECTIVE_ROTOR_COUNT>
4

> <PUBCHEM_PHARMACOPHORE_FEATURES>
16
1 1 donor
1 10 acceptor
1 2 donor
1 27 hydrophobe
1 3 acceptor
1 4 acceptor
1 5 donor
1 6 acceptor
1 7 acceptor
1 8 acceptor
1 9 acceptor
3 7 8 28 anion
3 9 10 30 anion
6 11 12 13 15 18 19 rings
6 11 12 14 16 17 20 rings
6 13 15 22 23 24 25 rings

> <PUBCHEM_HEAVY_ATOM_COUNT>
30

> <PUBCHEM_ATOM_DEF_STEREO_COUNT>
0

> <PUBCHEM_ATOM_UDEF_STEREO_COUNT>
0

> <PUBCHEM_BOND_DEF_STEREO_COUNT>
0

> <PUBCHEM_BOND_UDEF_STEREO_COUNT>
0

> <PUBCHEM_ISOTOPIC_ATOM_COUNT>
0

> <PUBCHEM_COMPONENT_COUNT>
1

> <PUBCHEM_CACTVS_TAUTO_COUNT>
998

> <PUBCHEM_CONFORMER_ID>
0051B6F700000001

> <PUBCHEM_MMFF94_ENERGY>
114.9592

> <PUBCHEM_FEATURE_SELFOVERLAP>
81.359

> <PUBCHEM_SHAPE_FINGERPRINT>
10616163 171 18411981364477931278
10906281 52 18262533571283398784
10967382 1 18337952401820266292
11513181 2 18130505228195327663
11578080 2 13841708503409212644
11963148 33 18409724059060504862
12107183 9 17761207722140187033
12166972 35 17676769867702303908
12236239 1 17917716854798780767
12553582 1 18339349863935501518
13140716 1 18337673001639852905
13862211 1 18410568526322306246
14341114 176 18339368444269738721
14790565 3 18411143532523195033
15196674 1 18410574019611780109
15927050 60 17260190419859810156
1601671 61 18412262814048607490
17349148 13 18040154032676613988
17492 89 18411136892256270807
1813 80 17240488005030049205
18681886 176 18343578573598805026
19591789 44 18410573985162007197
20028762 73 18201715210410983406
20691752 17 17676204658548514009
21033648 29 17489009522586073402
21236236 1 18413108385972410333
21267235 1 18410300236900319630
21279426 13 18410856551066017437
21421861 104 18114454549194733002
22393880 68 18410575054930819004
23402539 116 18341888602224556221
23522609 53 18192181293494416012
23559900 14 18342453703640087908
239999 70 18272656744960061084
3004659 81 18333733529156383308
335352 9 18410575067562662764
34934 24 18411415120411025446
350125 39 18410013230253768468
3680242 22 18263927626819278954
4073 2 18187088398978778347
4214541 1 18410855460439580061
463206 1 18195526115329444055
5104073 3 18410855490399006353
59755656 215 18410013191561743668
6823239 73 18129672889787956110
9709674 26 18410016532761943687

> <PUBCHEM_SHAPE_MULTIPOLES>
558.69
12.8
3.29
0.88
0.53
0.29
-0.04
-1.75
-0.58
0.55
0.09
0.22
-0.3
-0.71

> <PUBCHEM_SHAPE_SELFOVERLAP>
1256.531

> <PUBCHEM_SHAPE_VOLUME>
293.7

> <PUBCHEM_COORDINATE_TYPE>
2
5
10

$$$$
