238797
  -OEChem-02101610533D

 37 37  0     0  0  0  0  0  0999 V2000
    4.3044   -1.2689    0.6959 O   0  0  0  0  0  0  0  0  0  0  0  0
    3.8173    0.9309   -0.9107 O   0  0  0  0  0  0  0  0  0  0  0  0
   -0.7151    1.6987    0.3499 C   0  0  0  0  0  0  0  0  0  0  0  0
    0.3756    0.7186   -0.0178 C   0  0  0  0  0  0  0  0  0  0  0  0
   -0.0486   -0.6402   -0.3631 C   0  0  0  0  0  0  0  0  0  0  0  0
   -1.4263   -0.7933   -0.9663 C   0  0  0  0  0  0  0  0  0  0  0  0
   -0.4850    2.2216    1.7594 C   0  0  0  0  0  0  0  0  0  0  0  0
   -0.7687    2.8342   -0.6618 C   0  0  0  0  0  0  0  0  0  0  0  0
    1.6436    1.1639   -0.0476 C   0  0  0  0  0  0  0  0  0  0  0  0
    0.6999   -1.7439   -0.1930 C   0  0  0  0  0  0  0  0  0  0  0  0
   -2.4600   -1.0173    0.0881 C   0  0  0  0  0  0  0  0  0  0  0  0
    2.8790    0.3932   -0.3273 C   0  0  0  0  0  0  0  0  0  0  0  0
    2.0311   -1.8532    0.3448 C   0  0  0  0  0  0  0  0  0  0  0  0
   -3.7671   -0.6955    0.0400 C   0  0  0  0  0  0  0  0  0  0  0  0
    3.0279   -0.9628    0.2566 C   0  0  0  0  0  0  0  0  0  0  0  0
   -4.7618   -0.9474    1.1377 C   0  0  0  0  0  0  0  0  0  0  0  0
   -4.3463   -0.0387   -1.1848 C   0  0  0  0  0  0  0  0  0  0  0  0
   -1.7098    1.2629    0.3723 H   0  0  0  0  0  0  0  0  0  0  0  0
   -1.6460    0.0598   -1.6165 H   0  0  0  0  0  0  0  0  0  0  0  0
   -1.4357   -1.6687   -1.6305 H   0  0  0  0  0  0  0  0  0  0  0  0
    0.4207    2.8313    1.8478 H   0  0  0  0  0  0  0  0  0  0  0  0
   -0.4140    1.4002    2.4817 H   0  0  0  0  0  0  0  0  0  0  0  0
   -1.3242    2.8553    2.0696 H   0  0  0  0  0  0  0  0  0  0  0  0
   -0.8864    2.4561   -1.6835 H   0  0  0  0  0  0  0  0  0  0  0  0
    0.1210    3.4723   -0.6365 H   0  0  0  0  0  0  0  0  0  0  0  0
   -1.6282    3.4826   -0.4548 H   0  0  0  0  0  0  0  0  0  0  0  0
    1.8567    2.2146    0.1382 H   0  0  0  0  0  0  0  0  0  0  0  0
    0.2748   -2.7090   -0.4681 H   0  0  0  0  0  0  0  0  0  0  0  0
   -2.1214   -1.5295    0.9890 H   0  0  0  0  0  0  0  0  0  0  0  0
    2.2543   -2.8255    0.7816 H   0  0  0  0  0  0  0  0  0  0  0  0
   -5.2157   -0.0059    1.4633 H   0  0  0  0  0  0  0  0  0  0  0  0
   -4.2900   -1.4104    2.0106 H   0  0  0  0  0  0  0  0  0  0  0  0
   -5.5542   -1.6179    0.7903 H   0  0  0  0  0  0  0  0  0  0  0  0
   -3.7095   -0.0993   -2.0703 H   0  0  0  0  0  0  0  0  0  0  0  0
   -5.2908   -0.5234   -1.4572 H   0  0  0  0  0  0  0  0  0  0  0  0
   -4.5529    1.0170   -0.9809 H   0  0  0  0  0  0  0  0  0  0  0  0
    4.8690   -0.4933    0.5344 H   0  0  0  0  0  0  0  0  0  0  0  0
  1 15  1  0  0  0  0
  1 37  1  0  0  0  0
  2 12  2  0  0  0  0
  3  4  1  0  0  0  0
  3  7  1  0  0  0  0
  3  8  1  0  0  0  0
  3 18  1  0  0  0  0
  4  5  1  0  0  0  0
  4  9  2  0  0  0  0
  5  6  1  0  0  0  0
  5 10  2  0  0  0  0
  6 11  1  0  0  0  0
  6 19  1  0  0  0  0
  6 20  1  0  0  0  0
  7 21  1  0  0  0  0
  7 22  1  0  0  0  0
  7 23  1  0  0  0  0
  8 24  1  0  0  0  0
  8 25  1  0  0  0  0
  8 26  1  0  0  0  0
  9 12  1  0  0  0  0
  9 27  1  0  0  0  0
 10 13  1  0  0  0  0
 10 28  1  0  0  0  0
 11 14  2  0  0  0  0
 11 29  1  0  0  0  0
 12 15  1  0  0  0  0
 13 15  2  0  0  0  0
 13 30  1  0  0  0  0
 14 16  1  0  0  0  0
 14 17  1  0  0  0  0
 16 31  1  0  0  0  0
 16 32  1  0  0  0  0
 16 33  1  0  0  0  0
 17 34  1  0  0  0  0
 17 35  1  0  0  0  0
 17 36  1  0  0  0  0
M  END
> <PUBCHEM_COMPOUND_CID>
238797

> <PUBCHEM_CONFORMER_RMSD>
0.6

> <PUBCHEM_CONFORMER_DIVERSEORDER>
2
20
14
13
21
8
12
7
19
4
6
10
1
5
15
11
9
18
16
3
17

> <PUBCHEM_MMFF94_PARTIAL_CHARGES>
20
1 -0.53
10 -0.15
11 -0.29
12 0.54
13 -0.15
14 -0.28
15 0.09
16 0.14
17 0.14
2 -0.57
27 0.15
28 0.15
29 0.15
3 0.14
30 0.15
37 0.45
4 -0.14
5 -0.14
6 0.28
9 -0.14

> <PUBCHEM_EFFECTIVE_ROTOR_COUNT>
3

> <PUBCHEM_PHARMACOPHORE_FEATURES>
5
1 1 donor
1 2 acceptor
3 14 16 17 hydrophobe
3 3 7 8 hydrophobe
7 4 5 9 10 12 13 15 rings

> <PUBCHEM_HEAVY_ATOM_COUNT>
17

> <PUBCHEM_ATOM_DEF_STEREO_COUNT>
0

> <PUBCHEM_ATOM_UDEF_STEREO_COUNT>
0

> <PUBCHEM_BOND_DEF_STEREO_COUNT>
0

> <PUBCHEM_BOND_UDEF_STEREO_COUNT>
0

> <PUBCHEM_ISOTOPIC_ATOM_COUNT>
0

> <PUBCHEM_COMPONENT_COUNT>
1

> <PUBCHEM_CACTVS_TAUTO_COUNT>
11

> <PUBCHEM_CONFORMER_ID>
0003A4CD00000002

> <PUBCHEM_MMFF94_ENERGY>
51.1057

> <PUBCHEM_FEATURE_SELFOVERLAP>
25.371

> <PUBCHEM_SHAPE_FINGERPRINT>
10130415 120 18342457075368873843
104564 63 18200882777229488057
10980938 120 18340203089374903383
11086676 242 18273500061139888019
11132069 177 18131343111689287055
11471102 20 18408597084740912014
11680611 10 17972876960704060338
11680986 33 17695626255974893694
12553582 1 18343582966575070647
13132413 78 18341899627469298269
13134695 92 18200866379287120437
13140716 1 18268984465980648290
14178342 30 18051122597920140282
14993402 34 17846215596390811663
15375462 189 18411980282241202635
15490181 8 17266100900285840940
15848700 24 18060414737620487477
16752209 62 18270674268874680878
16945 1 18336815502776459404
18785283 64 17681846433542884005
200 152 18410286991231656798
20510252 161 18201432528837703106
20645477 70 18335132081644763519
21267235 1 18410301289130617758
21421861 104 17970629571827212643
21501502 16 18265900159353969040
22182313 1 17843118104779582302
23184049 59 18201158840557786375
23402539 116 18201145594630907919
23526113 38 17894912983659695723
23557571 272 17845931828138941370
23558518 356 18049451344008261251
23559900 14 18119799219045582202
25610 137 18334860519293660214
26918003 58 18040990726528645155
2748010 2 17912079443792572406
34934 24 18128530647166262676
350125 39 18411418385113866560
394222 165 17532650342363801232
53655031 270 18342178860050814250
537710 114 18411421738681244111
81228 2 18124329207099212251

> <PUBCHEM_SHAPE_MULTIPOLES>
338.11
7.51
2.46
1.13
3.41
1.46
-0.21
-3.33
-0.25
-0.38
-0.33
0.63
0.36
-0.26

> <PUBCHEM_SHAPE_SELFOVERLAP>
686.515

> <PUBCHEM_SHAPE_VOLUME>
196.4

> <PUBCHEM_COORDINATE_TYPE>
2
5
10

$$$$
