2261548
  -OEChem-02101610513D

 34 36  0     0  0  0  0  0  0999 V2000
   -6.7877   -1.2024    0.2376 Br  0  0  0  0  0  0  0  0  0  0  0  0
   -1.5704    3.1536    0.3064 S   0  0  0  0  0  0  0  0  0  0  0  0
   -0.2796   -1.8235    0.1011 O   0  0  0  0  0  0  0  0  0  0  0  0
    4.4724   -0.7903   -1.0727 O   0  0  0  0  0  0  0  0  0  0  0  0
    3.0436    1.5508   -0.0777 O   0  0  0  0  0  0  0  0  0  0  0  0
   -0.9079    0.4421    0.1430 N   0  0  0  0  0  0  0  0  0  0  0  0
    0.8117    2.0872    0.0422 N   0  0  0  0  0  0  0  0  0  0  0  0
   -2.2978    0.0543    0.1483 C   0  0  0  0  0  0  0  0  0  0  0  0
   -2.9787   -0.1233   -1.0464 C   0  0  0  0  0  0  0  0  0  0  0  0
    0.0185   -0.6288    0.1279 C   0  0  0  0  0  0  0  0  0  0  0  0
    1.4467   -0.2120    0.0938 C   0  0  0  0  0  0  0  0  0  0  0  0
   -0.5512    1.8167    0.1391 C   0  0  0  0  0  0  0  0  0  0  0  0
   -2.9286   -0.1344    1.3690 C   0  0  0  0  0  0  0  0  0  0  0  0
    1.8708    1.1997    0.0066 C   0  0  0  0  0  0  0  0  0  0  0  0
   -4.3219   -0.4983   -1.0204 C   0  0  0  0  0  0  0  0  0  0  0  0
   -2.3114    0.0772   -2.3683 C   0  0  0  0  0  0  0  0  0  0  0  0
    2.3984   -1.1563    0.1334 C   0  0  0  0  0  0  0  0  0  0  0  0
   -4.2718   -0.5095    1.3950 C   0  0  0  0  0  0  0  0  0  0  0  0
   -4.9685   -0.6916    0.2004 C   0  0  0  0  0  0  0  0  0  0  0  0
    3.8035   -0.8910    0.0955 C   0  0  0  0  0  0  0  0  0  0  0  0
    4.6294   -0.7085    1.1677 C   0  0  0  0  0  0  0  0  0  0  0  0
    5.9145   -0.4759    0.6224 C   0  0  0  0  0  0  0  0  0  0  0  0
    5.7661   -0.5357   -0.7437 C   0  0  0  0  0  0  0  0  0  0  0  0
   -2.3937    0.0035    2.3046 H   0  0  0  0  0  0  0  0  0  0  0  0
   -4.8662   -0.6404   -1.9513 H   0  0  0  0  0  0  0  0  0  0  0  0
    1.0631    3.0719    0.0184 H   0  0  0  0  0  0  0  0  0  0  0  0
   -2.9905   -0.1329   -3.2020 H   0  0  0  0  0  0  0  0  0  0  0  0
   -1.9743    1.1123   -2.4801 H   0  0  0  0  0  0  0  0  0  0  0  0
   -1.4551   -0.5964   -2.4753 H   0  0  0  0  0  0  0  0  0  0  0  0
    2.1319   -2.2079    0.1971 H   0  0  0  0  0  0  0  0  0  0  0  0
   -4.7605   -0.6565    2.3548 H   0  0  0  0  0  0  0  0  0  0  0  0
    4.3584   -0.7351    2.2140 H   0  0  0  0  0  0  0  0  0  0  0  0
    6.8336   -0.2876    1.1579 H   0  0  0  0  0  0  0  0  0  0  0  0
    6.4465   -0.4246   -1.5753 H   0  0  0  0  0  0  0  0  0  0  0  0
  1 19  1  0  0  0  0
  2 12  2  0  0  0  0
  3 10  2  0  0  0  0
  4 20  1  0  0  0  0
  4 23  1  0  0  0  0
  5 14  2  0  0  0  0
  6  8  1  0  0  0  0
  6 10  1  0  0  0  0
  6 12  1  0  0  0  0
  7 12  1  0  0  0  0
  7 14  1  0  0  0  0
  7 26  1  0  0  0  0
  8  9  2  0  0  0  0
  8 13  1  0  0  0  0
  9 15  1  0  0  0  0
  9 16  1  0  0  0  0
 10 11  1  0  0  0  0
 11 14  1  0  0  0  0
 11 17  2  0  0  0  0
 13 18  2  0  0  0  0
 13 24  1  0  0  0  0
 15 19  2  0  0  0  0
 15 25  1  0  0  0  0
 16 27  1  0  0  0  0
 16 28  1  0  0  0  0
 16 29  1  0  0  0  0
 17 20  1  0  0  0  0
 17 30  1  0  0  0  0
 18 19  1  0  0  0  0
 18 31  1  0  0  0  0
 20 21  2  0  0  0  0
 21 22  1  0  0  0  0
 21 32  1  0  0  0  0
 22 23  2  0  0  0  0
 22 33  1  0  0  0  0
 23 34  1  0  0  0  0
M  END
> <PUBCHEM_COMPOUND_CID>
2261548

> <PUBCHEM_CONFORMER_RMSD>
0.6

> <PUBCHEM_CONFORMER_DIVERSEORDER>
1
4
2
3

> <PUBCHEM_MMFF94_PARTIAL_CHARGES>
31
1 -0.11
10 0.62
11 0.03
12 0.5
13 -0.15
14 0.62
15 -0.15
16 0.14
17 -0.11
18 -0.15
19 0.11
2 -0.38
20 0.09
21 -0.15
22 -0.15
23 -0.01
24 0.15
25 0.15
26 0.37
3 -0.57
30 0.15
31 0.15
32 0.15
33 0.15
34 0.15
4 -0.28
5 -0.57
6 -0.24
7 -0.49
8 0.12
9 -0.14

> <PUBCHEM_EFFECTIVE_ROTOR_COUNT>
2.4

> <PUBCHEM_PHARMACOPHORE_FEATURES>
10
1 1 hydrophobe
1 11 anion
1 2 acceptor
1 3 acceptor
1 4 acceptor
1 5 acceptor
1 7 donor
5 4 20 21 22 23 rings
6 6 7 10 11 12 14 rings
6 8 9 13 15 18 19 rings

> <PUBCHEM_HEAVY_ATOM_COUNT>
23

> <PUBCHEM_ATOM_DEF_STEREO_COUNT>
0

> <PUBCHEM_ATOM_UDEF_STEREO_COUNT>
0

> <PUBCHEM_BOND_DEF_STEREO_COUNT>
1

> <PUBCHEM_BOND_UDEF_STEREO_COUNT>
0

> <PUBCHEM_ISOTOPIC_ATOM_COUNT>
0

> <PUBCHEM_COMPONENT_COUNT>
1

> <PUBCHEM_CACTVS_TAUTO_COUNT>
3

> <PUBCHEM_CONFORMER_ID>
0022822C00000001

> <PUBCHEM_MMFF94_ENERGY>
87.7021

> <PUBCHEM_FEATURE_SELFOVERLAP>
50.748

> <PUBCHEM_SHAPE_FINGERPRINT>
10366900 7 17313099765828939755
11552529 35 15338248260783551076
11796584 16 16660364783293761786
11963148 33 18409443704506028794
12107183 9 15406989534484579826
12166972 35 17821731662615163413
12236239 1 17775569775646678347
12403259 415 17967803972988319365
12516196 113 18413107272916465441
12553582 1 18341885286320126798
12596602 18 16845572041104641171
13140716 1 18266740362705932194
13583140 156 14620510073768256184
13685833 64 18408042935613271619
13782708 43 17895190060780195403
13862211 1 18409729556164144674
13911987 19 18259993686085024406
14350574 20 18260547839960974535
14840074 17 18059855077843928870
15183329 4 14851598856710796834
15849732 13 17704070699240311975
17349148 13 18407757028266987706
17492 89 18121779431187708490
1813 80 18200888313125847900
18222031 100 18413388743582462506
19141452 34 17418087749882130759
19489759 90 15213018237044701654
200 152 18335135380189526979
20028762 73 18201719604315702711
20602899 9 15864079757976191105
21033648 29 18041543819521566236
21033650 10 14491595557127849766
21236236 1 18339644421461723640
21267235 1 18412269436429397934
21641784 216 18042140794643952012
22182313 1 17701549406591417076
23175994 123 18261394477226824125
23402539 116 18342453720809407630
23536379 177 15574711378926265850
23557571 272 17917997127263750380
23559900 14 16153712076156881063
23569943 247 17699586757299837590
23622692 88 16487254383130493233
283562 15 18337956675355034721
3004659 81 18113056060223883600
314173 85 18272653432749296648
329604 57 18040437689686537364
34797466 226 15719399442313929206
350125 39 18411703162430311256
404807 14 14930090616705989154
465052 167 18411989091071485639
59755656 215 18260830388769777723
7495541 125 17748829643947523502
8863177 126 17897737680740410763

> <PUBCHEM_SHAPE_MULTIPOLES>
455.55
13.67
2.01
1.29
2.57
2
-0.44
-7.38
0.9
-0.41
0.24
-0.86
-0.14
0.08

> <PUBCHEM_SHAPE_SELFOVERLAP>
975.307

> <PUBCHEM_SHAPE_VOLUME>
258.1

> <PUBCHEM_COORDINATE_TYPE>
2
5
10

$$$$
