5332368
  -OEChem-02101610493D

 50 52  0     0  0  0  0  0  0999 V2000
   10.3433   -1.9794   -0.3342 O   0  0  0  0  0  0  0  0  0  0  0  0
   11.1879    0.5986    0.2723 O   0  0  0  0  0  0  0  0  0  0  0  0
    5.3431   -1.4606   -0.8714 O   0  0  0  0  0  0  0  0  0  0  0  0
   -5.3701   -0.7875    1.8248 O   0  0  0  0  0  0  0  0  0  0  0  0
   -9.7760    1.8825    0.1122 O   0  0  0  0  0  0  0  0  0  0  0  0
  -11.1164   -0.3441   -0.5834 O   0  0  0  0  0  0  0  0  0  0  0  0
    3.5241    0.0475    0.5205 N   0  0  0  0  0  0  0  0  0  0  0  0
    4.8806    0.2689    0.5987 N   0  0  0  0  0  0  0  0  0  0  0  0
   -3.5694   -0.4506   -0.2558 N   0  0  0  0  0  0  0  0  0  0  0  0
   -4.9333   -0.4052   -0.4309 N   0  0  0  0  0  0  0  0  0  0  0  0
    1.3438    0.8999   -0.0860 C   0  0  0  0  0  0  0  0  0  0  0  0
   -1.4489    0.7040   -0.3914 C   0  0  0  0  0  0  0  0  0  0  0  0
    0.5789    2.0367   -0.6044 C   0  0  0  0  0  0  0  0  0  0  0  0
    0.6498   -0.3393    0.2723 C   0  0  0  0  0  0  0  0  0  0  0  0
   -0.7547    1.9430   -0.7503 C   0  0  0  0  0  0  0  0  0  0  0  0
   -0.6840   -0.4328    0.1267 C   0  0  0  0  0  0  0  0  0  0  0  0
    7.1672   -0.2456   -0.0326 C   0  0  0  0  0  0  0  0  0  0  0  0
    2.6756    0.9937    0.0602 C   0  0  0  0  0  0  0  0  0  0  0  0
   -2.7808    0.6105   -0.5370 C   0  0  0  0  0  0  0  0  0  0  0  0
    8.0740   -1.2641   -0.2370 C   0  0  0  0  0  0  0  0  0  0  0  0
    5.7152   -0.5453   -0.1413 C   0  0  0  0  0  0  0  0  0  0  0  0
    7.5596    1.0416    0.2692 C   0  0  0  0  0  0  0  0  0  0  0  0
   -7.1697   -0.5131    0.3385 C   0  0  0  0  0  0  0  0  0  0  0  0
    9.4363   -0.9826   -0.1349 C   0  0  0  0  0  0  0  0  0  0  0  0
    9.8603    0.3110    0.1692 C   0  0  0  0  0  0  0  0  0  0  0  0
    8.9218    1.3232    0.3713 C   0  0  0  0  0  0  0  0  0  0  0  0
   -5.7358   -0.5855    0.6719 C   0  0  0  0  0  0  0  0  0  0  0  0
   -7.7412    0.6958    0.4033 C   0  0  0  0  0  0  0  0  0  0  0  0
   -7.8872   -1.7076   -0.0360 C   0  0  0  0  0  0  0  0  0  0  0  0
   -9.1780    0.8182    0.0778 C   0  0  0  0  0  0  0  0  0  0  0  0
   -9.1873   -1.7038   -0.3494 C   0  0  0  0  0  0  0  0  0  0  0  0
   -9.9288   -0.4281   -0.3126 C   0  0  0  0  0  0  0  0  0  0  0  0
    1.0955    2.9535   -0.8695 H   0  0  0  0  0  0  0  0  0  0  0  0
    1.1916   -1.1953    0.6572 H   0  0  0  0  0  0  0  0  0  0  0  0
   -1.3237    2.7837   -1.1341 H   0  0  0  0  0  0  0  0  0  0  0  0
   -1.1725   -1.3607    0.3999 H   0  0  0  0  0  0  0  0  0  0  0  0
    3.1872    1.9143   -0.2112 H   0  0  0  0  0  0  0  0  0  0  0  0
   -3.3451    1.4586   -0.9178 H   0  0  0  0  0  0  0  0  0  0  0  0
    7.7528   -2.2756   -0.4692 H   0  0  0  0  0  0  0  0  0  0  0  0
    6.8610    1.8609    0.4038 H   0  0  0  0  0  0  0  0  0  0  0  0
    3.1934   -0.8567    0.8306 H   0  0  0  0  0  0  0  0  0  0  0  0
    5.1675    0.9869    1.2545 H   0  0  0  0  0  0  0  0  0  0  0  0
    9.2390    2.3366    0.6024 H   0  0  0  0  0  0  0  0  0  0  0  0
   -3.1852   -1.3207    0.0884 H   0  0  0  0  0  0  0  0  0  0  0  0
   -5.2613   -0.2539   -1.3792 H   0  0  0  0  0  0  0  0  0  0  0  0
   -7.2039    1.5943    0.6843 H   0  0  0  0  0  0  0  0  0  0  0  0
   -7.3354   -2.6426   -0.0603 H   0  0  0  0  0  0  0  0  0  0  0  0
   -9.7153   -2.6069   -0.6289 H   0  0  0  0  0  0  0  0  0  0  0  0
   11.2357   -1.6072   -0.2250 H   0  0  0  0  0  0  0  0  0  0  0  0
   11.2920    1.5411    0.4885 H   0  0  0  0  0  0  0  0  0  0  0  0
  1 24  1  0  0  0  0
  1 49  1  0  0  0  0
  2 25  1  0  0  0  0
  2 50  1  0  0  0  0
  3 21  2  0  0  0  0
  4 27  2  0  0  0  0
  5 30  2  0  0  0  0
  6 32  2  0  0  0  0
  7  8  1  0  0  0  0
  7 18  1  0  0  0  0
  7 41  1  0  0  0  0
  8 21  1  0  0  0  0
  8 42  1  0  0  0  0
  9 10  1  0  0  0  0
  9 19  1  0  0  0  0
  9 44  1  0  0  0  0
 10 27  1  0  0  0  0
 10 45  1  0  0  0  0
 11 13  1  0  0  0  0
 11 14  1  0  0  0  0
 11 18  2  0  0  0  0
 12 15  1  0  0  0  0
 12 16  1  0  0  0  0
 12 19  2  0  0  0  0
 13 15  2  0  0  0  0
 13 33  1  0  0  0  0
 14 16  2  0  0  0  0
 14 34  1  0  0  0  0
 15 35  1  0  0  0  0
 16 36  1  0  0  0  0
 17 20  2  0  0  0  0
 17 21  1  0  0  0  0
 17 22  1  0  0  0  0
 18 37  1  0  0  0  0
 19 38  1  0  0  0  0
 20 24  1  0  0  0  0
 20 39  1  0  0  0  0
 22 26  2  0  0  0  0
 22 40  1  0  0  0  0
 23 27  1  0  0  0  0
 23 28  2  0  0  0  0
 23 29  1  0  0  0  0
 24 25  2  0  0  0  0
 25 26  1  0  0  0  0
 26 43  1  0  0  0  0
 28 30  1  0  0  0  0
 28 46  1  0  0  0  0
 29 31  2  0  0  0  0
 29 47  1  0  0  0  0
 30 32  1  0  0  0  0
 31 32  1  0  0  0  0
 31 48  1  0  0  0  0
M  END
> <PUBCHEM_COMPOUND_CID>
5332368

> <PUBCHEM_CONFORMER_RMSD>
1

> <PUBCHEM_CONFORMER_DIVERSEORDER>
1
170
109
255
10
233
329
314
221
363
151
381
31
213
83
178
340
131
218
352
238
111
259
173
386
345
337
195
135
278
143
254
249
167
148
196
346
116
328
324
343
291
374
334
267
106
312
285
239
4
330
212
164
366
380
228
37
351
168
260
225
361
377
347
384
91
198
95
120
217
256
389
142
391
138
101
136
342
204
144
162
216
29
273
286
292
82
140
189
305
166
385
197
28
200
231
232
209
371
124
191
8
344
322
357
202
223
251
156
372
323
117
86
71
359
263
107
5
244
280
276
211
275
158
139
355
313
87
47
333
325
132
379
307
97
327
192
282
235
234
394
123
214
90
99
165
310
277
160
338
383
157
236
335
364
279
102
188
23
230
78
114
284
242
81
193
269
288
365
180
219
368
397
203
247
348
122
395
153
294
362
274
257
289
320
229
159
179
222
59
220
39
85
301
88
317
147
171
393
184
392
175
125
18
185
375
45
373
308
246
50
36
186
302
137
297
262
24
253
290
287
360
245
336
176
27
154
237
69
326
215
369
311
92
74
353
295
129
303
319
258
141
119
396
271
358
134
306
108
248
150
182
149
34
133
163
356
265
2
207
103
370
130
146
98
227
388
190
62
201
75
341
250
17
174
378
42
32
268
283
84
241
6
105
155
65
315
354
13
382
387
367
44
63
145
115
332
152
43
304
80
89
194
264
226
172
318
350
206
3
331
376
51
54
281
48
126
205
57
68
266
339
298
9
61
56
210
316
52
224
96
112
16
390
38
321
94
7
309
349
67
296
270
121
79
41
118
93
26
76
100
64
12
113
40
30
72
199
70
22
181
35
55
77
243
53
58
183
33
60
300
169
252
161
240
73
272
127
110
14
66
11
261
299
15
293
21
49
177
187
19
128
104
25
208
46
20

> <PUBCHEM_MMFF94_PARTIAL_CHARGES>
48
1 -0.53
10 -0.41
13 -0.15
14 -0.15
15 -0.15
16 -0.15
17 0.09
18 -0.05
19 -0.05
2 -0.53
20 -0.15
21 0.54
22 -0.15
23 0.01
24 0.08
25 0.08
26 -0.15
27 0.62
28 -0.14
29 -0.15
3 -0.57
30 0.56
31 -0.14
32 0.56
33 0.15
34 0.15
35 0.15
36 0.15
37 0.15
38 0.15
39 0.15
4 -0.57
40 0.15
41 0.4
42 0.37
43 0.15
44 0.4
45 0.37
46 0.15
47 0.15
48 0.15
49 0.45
5 -0.57
50 0.45
6 -0.57
7 -0.52
8 -0.41
9 -0.52

> <PUBCHEM_EFFECTIVE_ROTOR_COUNT>
8

> <PUBCHEM_PHARMACOPHORE_FEATURES>
13
1 1 donor
1 10 donor
1 2 donor
1 3 acceptor
1 4 acceptor
1 5 acceptor
1 6 acceptor
1 7 donor
1 8 donor
1 9 donor
6 11 12 13 14 15 16 rings
6 17 20 22 24 25 26 rings
6 23 28 29 30 31 32 rings

> <PUBCHEM_HEAVY_ATOM_COUNT>
32

> <PUBCHEM_ATOM_DEF_STEREO_COUNT>
0

> <PUBCHEM_ATOM_UDEF_STEREO_COUNT>
0

> <PUBCHEM_BOND_DEF_STEREO_COUNT>
0

> <PUBCHEM_BOND_UDEF_STEREO_COUNT>
0

> <PUBCHEM_ISOTOPIC_ATOM_COUNT>
0

> <PUBCHEM_COMPONENT_COUNT>
1

> <PUBCHEM_CACTVS_TAUTO_COUNT>
658

> <PUBCHEM_CONFORMER_ID>
00515D9000000001

> <PUBCHEM_MMFF94_ENERGY>
88.2658

> <PUBCHEM_FEATURE_SELFOVERLAP>
69.04

> <PUBCHEM_SHAPE_FINGERPRINT>
10076449 9 17168141239418263325
10580692 12 18202002118510227753
10674148 151 17822010921826638113
10883706 142 10015865383956316185
11211813 89 17530965795986583465
12013929 2 18412824681818184353
12522641 33 18334014986732367586
12539745 222 18059859424377998905
12643181 29 17530969116181322891
14251764 46 18411136939405114513
14428016 86 10015867582826629796
15061470 23 18413386536006669760
15065858 18 18410290328452829523
15247644 1 18409732867405380763
15347591 1 17898280602944253746
15510794 2 18412545396778896510
16067689 302 18338516344835156678
16728433 110 17748826345001651709
18335252 98 18409166598248191838
20105231 36 18272655615684816910
21362267 20 18201153342884954943
21362267 313 18265048046806781362
21585481 151 18335984255392106123
21591340 7 10519982664639982336
21792934 111 18408320012660087092
21792961 116 17530961372175731933
22164985 6 16226042332152063154
232437 2 18412825785244899686
249057 3 15357701911255096839
3092352 35 15195286434598569932
335352 9 18040997363028291491
395649 100 10951756483845155741
4017518 198 18342176683410822071
5381727 24 11671777174376774477
57828716 8 17704064119878513951
59521270 166 17168137924278380631
6126387 218 18413110546425473229
6691757 9 16415485986953796319
67123 10 18342175570137390578
9663363 56 18187362142523972668

> <PUBCHEM_SHAPE_MULTIPOLES>
603.41
47.85
1.69
0.82
4.51
0.14
0.11
-10.35
0.54
-0.04
-0.24
-0.5
-0.04
0.68

> <PUBCHEM_SHAPE_SELFOVERLAP>
1305.808

> <PUBCHEM_SHAPE_VOLUME>
325.8

> <PUBCHEM_COORDINATE_TYPE>
2
5
10

$$$$
