673340
  -OEChem-02101610503D

 44 46  0     0  0  0  0  0  0999 V2000
    1.6239    1.5321   -0.1526 S   0  0  0  0  0  0  0  0  0  0  0  0
    1.9668   -3.0892   -1.1044 O   0  0  0  0  0  0  0  0  0  0  0  0
   -3.5542    0.7802    0.6771 O   0  0  0  0  0  0  0  0  0  0  0  0
   -1.1610    1.7322    0.2743 O   0  0  0  0  0  0  0  0  0  0  0  0
   -0.1287   -0.3914    0.1832 N   0  0  0  0  0  0  0  0  0  0  0  0
    2.2927   -2.9721    1.1485 N   0  0  0  0  0  0  0  0  0  0  0  0
    5.8851   -0.3763    0.4539 C   0  0  0  0  0  0  0  0  0  0  0  0
    6.4189    1.0359    0.1957 C   0  0  0  0  0  0  0  0  0  0  0  0
    4.8477   -0.8510   -0.5646 C   0  0  0  0  0  0  0  0  0  0  0  0
    5.4166    2.1673    0.4432 C   0  0  0  0  0  0  0  0  0  0  0  0
    3.5039   -0.2152   -0.3801 C   0  0  0  0  0  0  0  0  0  0  0  0
    4.2846    2.2402   -0.5828 C   0  0  0  0  0  0  0  0  0  0  0  0
    3.2753    1.1498   -0.3912 C   0  0  0  0  0  0  0  0  0  0  0  0
    2.2864   -0.9409   -0.1704 C   0  0  0  0  0  0  0  0  0  0  0  0
    1.1947   -0.1151   -0.0307 C   0  0  0  0  0  0  0  0  0  0  0  0
    2.1618   -2.3771   -0.1031 C   0  0  0  0  0  0  0  0  0  0  0  0
   -1.2169    0.5070    0.3198 C   0  0  0  0  0  0  0  0  0  0  0  0
   -2.5387   -0.1933    0.5482 C   0  0  0  0  0  0  0  0  0  0  0  0
   -4.8197    0.4228    0.2766 C   0  0  0  0  0  0  0  0  0  0  0  0
   -5.2181   -0.9036    0.3715 C   0  0  0  0  0  0  0  0  0  0  0  0
   -5.6803    1.3933   -0.2175 C   0  0  0  0  0  0  0  0  0  0  0  0
   -6.5019   -1.2666   -0.0358 C   0  0  0  0  0  0  0  0  0  0  0  0
   -6.9642    1.0305   -0.6247 C   0  0  0  0  0  0  0  0  0  0  0  0
   -7.3748   -0.2995   -0.5339 C   0  0  0  0  0  0  0  0  0  0  0  0
    5.4834   -0.4435    1.4726 H   0  0  0  0  0  0  0  0  0  0  0  0
    6.7392   -1.0640    0.4078 H   0  0  0  0  0  0  0  0  0  0  0  0
    7.2729    1.1959    0.8662 H   0  0  0  0  0  0  0  0  0  0  0  0
    6.8134    1.1042   -0.8255 H   0  0  0  0  0  0  0  0  0  0  0  0
    4.7631   -1.9404   -0.4762 H   0  0  0  0  0  0  0  0  0  0  0  0
    5.2025   -0.6561   -1.5845 H   0  0  0  0  0  0  0  0  0  0  0  0
    5.9710    3.1133    0.3967 H   0  0  0  0  0  0  0  0  0  0  0  0
    5.0121    2.0918    1.4603 H   0  0  0  0  0  0  0  0  0  0  0  0
    4.6903    2.1862   -1.6006 H   0  0  0  0  0  0  0  0  0  0  0  0
    3.8042    3.2226   -0.4931 H   0  0  0  0  0  0  0  0  0  0  0  0
   -0.3512   -1.3820    0.2513 H   0  0  0  0  0  0  0  0  0  0  0  0
    2.4630   -2.4289    1.9889 H   0  0  0  0  0  0  0  0  0  0  0  0
    2.2226   -3.9783    1.2575 H   0  0  0  0  0  0  0  0  0  0  0  0
   -2.6959   -0.8501   -0.3173 H   0  0  0  0  0  0  0  0  0  0  0  0
   -2.4688   -0.7836    1.4684 H   0  0  0  0  0  0  0  0  0  0  0  0
   -4.5776   -1.6799    0.7784 H   0  0  0  0  0  0  0  0  0  0  0  0
   -5.3634    2.4297   -0.2899 H   0  0  0  0  0  0  0  0  0  0  0  0
   -6.8243   -2.3009    0.0405 H   0  0  0  0  0  0  0  0  0  0  0  0
   -7.6441    1.7835   -1.0123 H   0  0  0  0  0  0  0  0  0  0  0  0
   -8.3749   -0.5817   -0.8496 H   0  0  0  0  0  0  0  0  0  0  0  0
  1 13  1  0  0  0  0
  1 15  1  0  0  0  0
  2 16  2  0  0  0  0
  3 18  1  0  0  0  0
  3 19  1  0  0  0  0
  4 17  2  0  0  0  0
  5 15  1  0  0  0  0
  5 17  1  0  0  0  0
  5 35  1  0  0  0  0
  6 16  1  0  0  0  0
  6 36  1  0  0  0  0
  6 37  1  0  0  0  0
  7  8  1  0  0  0  0
  7  9  1  0  0  0  0
  7 25  1  0  0  0  0
  7 26  1  0  0  0  0
  8 10  1  0  0  0  0
  8 27  1  0  0  0  0
  8 28  1  0  0  0  0
  9 11  1  0  0  0  0
  9 29  1  0  0  0  0
  9 30  1  0  0  0  0
 10 12  1  0  0  0  0
 10 31  1  0  0  0  0
 10 32  1  0  0  0  0
 11 13  2  0  0  0  0
 11 14  1  0  0  0  0
 12 13  1  0  0  0  0
 12 33  1  0  0  0  0
 12 34  1  0  0  0  0
 14 15  2  0  0  0  0
 14 16  1  0  0  0  0
 17 18  1  0  0  0  0
 18 38  1  0  0  0  0
 18 39  1  0  0  0  0
 19 20  2  0  0  0  0
 19 21  1  0  0  0  0
 20 22  1  0  0  0  0
 20 40  1  0  0  0  0
 21 23  2  0  0  0  0
 21 41  1  0  0  0  0
 22 24  2  0  0  0  0
 22 42  1  0  0  0  0
 23 24  1  0  0  0  0
 23 43  1  0  0  0  0
 24 44  1  0  0  0  0
M  END
> <PUBCHEM_COMPOUND_CID>
673340

> <PUBCHEM_CONFORMER_RMSD>
0.8

> <PUBCHEM_CONFORMER_DIVERSEORDER>
1
145
69
106
118
82
127
81
34
121
144
58
15
114
138
41
65
152
94
76
61
129
123
148
136
122
98
95
12
73
51
79
124
125
3
9
103
116
97
99
44
16
119
158
139
5
120
74
149
105
147
53
84
67
143
90
7
33
117
6
96
146
10
85
111
154
100
91
89
60
37
113
126
71
75
26
52
24
68
77
54
115
46
141
21
62
49
57
13
20
131
66
155
151
137
132
14
107
108
39
29
134
48
112
88
133
19
109
63
42
83
102
35
135
45
140
70
2
128
31
156
153
23
8
78
11
38
28
43
40
50
25
4
47
87
86
110
80
17
55
36
142
22
59
30
64
32
27
130
157
101
93
92
104
72
150
18
56

> <PUBCHEM_MMFF94_PARTIAL_CHARGES>
29
1 -0.08
11 -0.18
12 0.18
13 -0.14
14 -0.09
15 0.1
16 0.72
17 0.57
18 0.34
19 0.08
2 -0.57
20 -0.15
21 -0.15
22 -0.15
23 -0.15
24 -0.15
3 -0.36
35 0.37
36 0.37
37 0.37
4 -0.57
40 0.15
41 0.15
42 0.15
43 0.15
44 0.15
5 -0.49
6 -0.8
9 0.18

> <PUBCHEM_EFFECTIVE_ROTOR_COUNT>
7

> <PUBCHEM_PHARMACOPHORE_FEATURES>
8
1 2 acceptor
1 3 acceptor
1 4 acceptor
1 5 donor
1 6 donor
5 1 11 13 14 15 rings
6 19 20 21 22 23 24 rings
7 7 8 9 10 11 12 13 rings

> <PUBCHEM_HEAVY_ATOM_COUNT>
24

> <PUBCHEM_ATOM_DEF_STEREO_COUNT>
0

> <PUBCHEM_ATOM_UDEF_STEREO_COUNT>
0

> <PUBCHEM_BOND_DEF_STEREO_COUNT>
0

> <PUBCHEM_BOND_UDEF_STEREO_COUNT>
0

> <PUBCHEM_ISOTOPIC_ATOM_COUNT>
0

> <PUBCHEM_COMPONENT_COUNT>
1

> <PUBCHEM_CACTVS_TAUTO_COUNT>
7

> <PUBCHEM_CONFORMER_ID>
000A463C00000001

> <PUBCHEM_MMFF94_ENERGY>
65.1949

> <PUBCHEM_FEATURE_SELFOVERLAP>
40.63

> <PUBCHEM_SHAPE_FINGERPRINT>
10050765 1 18122624959549492744
10299344 5 10519989274636985369
10411042 1 17977947883395729966
10595046 47 18413389818052319057
10835480 77 18409162178737835661
11135609 127 18262517112705834461
11315181 36 18060702802158484305
11719270 70 18412823586316836538
11796584 16 14490482993089316712
12236239 1 17989209222339552537
12516196 113 18131351921094628665
12596602 18 17561089085539657465
13073987 5 18409453549419085281
13668630 136 17704076188134780463
13692114 37 18199738301563294658
13836976 161 18410580591354660118
14461889 52 18187650253742218571
14528608 73 18412268350024224757
15183329 4 18334573513280228673
15537594 2 17632855335219819599
16991971 28 18125167035519896894
16993427 108 16881863424346436746
16993438 75 18117564148515287043
18335252 98 18335987558564614387
18608769 82 18262523731988792483
19377110 9 18060148608946820441
20028762 73 18272654502924634534
20157964 124 18410576179885020644
20511986 3 18341321254372414183
20554085 129 18059281163366521880
20645477 70 18411985719543153399
21049683 118 18193816358148048314
21150785 3 18060133263498299557
21403212 168 18335695053911057418
21521721 280 18059860622752384936
22224240 67 18411415142329045256
23559900 14 18339919437493521073
239999 70 18272377442836317414
29717793 49 17917437488297565421
300161 21 18260265240198574571
3004659 81 18334576815508504187
335352 9 18411989066514517932
34797466 226 15554452933335969016
4072396 5 18261105262903272938
4073 2 18114468941872838715
42630746 31 18342178860773338446
4325135 7 18343020008042316293
4340502 62 18413108377055493238
5104073 3 18262527987857582825
59755656 215 18260268525447642276

> <PUBCHEM_SHAPE_MULTIPOLES>
470.19
19.73
2.55
0.82
25.79
1.36
-0.01
-4.23
-1.29
-2.92
-0.1
-0.12
0.17
0.25

> <PUBCHEM_SHAPE_SELFOVERLAP>
990.096

> <PUBCHEM_SHAPE_VOLUME>
263.4

> <PUBCHEM_COORDINATE_TYPE>
2
5
10

$$$$
