1268390
  -OEChem-02101610503D

 50 52  0     0  0  0  0  0  0999 V2000
   -3.6066   -0.4485    0.0404 S   0  0  0  0  0  0  0  0  0  0  0  0
    0.6481   -0.0004   -1.9490 O   0  0  0  0  0  0  0  0  0  0  0  0
   -3.7074   -3.2466    0.3616 O   0  0  0  0  0  0  0  0  0  0  0  0
    6.5893    0.0579    0.4352 O   0  0  0  0  0  0  0  0  0  0  0  0
   -1.6600   -2.1963   -0.1621 N   0  0  0  0  0  0  0  0  0  0  0  0
    1.0463    0.2093    0.3369 N   0  0  0  0  0  0  0  0  0  0  0  0
   -1.6035    3.7980    0.3904 C   0  0  0  0  0  0  0  0  0  0  0  0
   -3.0363    4.3296    0.4920 C   0  0  0  0  0  0  0  0  0  0  0  0
   -1.3793    2.8138   -0.7585 C   0  0  0  0  0  0  0  0  0  0  0  0
   -4.0810    3.3060    0.9468 C   0  0  0  0  0  0  0  0  0  0  0  0
   -1.9568    1.4568   -0.4959 C   0  0  0  0  0  0  0  0  0  0  0  0
   -4.3913    2.2223   -0.0871 C   0  0  0  0  0  0  0  0  0  0  0  0
   -3.2876    1.2158   -0.2014 C   0  0  0  0  0  0  0  0  0  0  0  0
   -1.2040    0.2379   -0.5180 C   0  0  0  0  0  0  0  0  0  0  0  0
   -1.9765   -0.8671   -0.2430 C   0  0  0  0  0  0  0  0  0  0  0  0
    0.2084    0.1242   -0.7911 C   0  0  0  0  0  0  0  0  0  0  0  0
   -2.5047   -3.3015    0.1270 C   0  0  0  0  0  0  0  0  0  0  0  0
    2.4450    0.1715    0.3613 C   0  0  0  0  0  0  0  0  0  0  0  0
   -1.7438   -4.6189    0.1176 C   0  0  0  0  0  0  0  0  0  0  0  0
    3.1195    0.2682    1.5760 C   0  0  0  0  0  0  0  0  0  0  0  0
    3.1560    0.0361   -0.8285 C   0  0  0  0  0  0  0  0  0  0  0  0
   -2.6242   -5.8078    0.4586 C   0  0  0  0  0  0  0  0  0  0  0  0
    4.5137    0.2293    1.6010 C   0  0  0  0  0  0  0  0  0  0  0  0
    4.5500   -0.0030   -0.8036 C   0  0  0  0  0  0  0  0  0  0  0  0
    5.2290    0.0938    0.4111 C   0  0  0  0  0  0  0  0  0  0  0  0
    7.2576   -0.0804   -0.8177 C   0  0  0  0  0  0  0  0  0  0  0  0
   -1.3025    3.3498    1.3456 H   0  0  0  0  0  0  0  0  0  0  0  0
   -0.9440    4.6599    0.2271 H   0  0  0  0  0  0  0  0  0  0  0  0
   -1.8045    3.2138   -1.6875 H   0  0  0  0  0  0  0  0  0  0  0  0
   -0.2991    2.7356   -0.9285 H   0  0  0  0  0  0  0  0  0  0  0  0
   -3.0354    5.1498    1.2211 H   0  0  0  0  0  0  0  0  0  0  0  0
   -3.3389    4.7705   -0.4657 H   0  0  0  0  0  0  0  0  0  0  0  0
   -3.7723    2.8553    1.8983 H   0  0  0  0  0  0  0  0  0  0  0  0
   -5.0113    3.8528    1.1470 H   0  0  0  0  0  0  0  0  0  0  0  0
   -5.3270    1.7287    0.2047 H   0  0  0  0  0  0  0  0  0  0  0  0
   -4.5742    2.6755   -1.0692 H   0  0  0  0  0  0  0  0  0  0  0  0
   -0.6805   -2.4107   -0.3353 H   0  0  0  0  0  0  0  0  0  0  0  0
    0.5933    0.3173    1.2421 H   0  0  0  0  0  0  0  0  0  0  0  0
   -0.9237   -4.5492    0.8411 H   0  0  0  0  0  0  0  0  0  0  0  0
   -1.3069   -4.7566   -0.8779 H   0  0  0  0  0  0  0  0  0  0  0  0
    2.5741    0.3740    2.5102 H   0  0  0  0  0  0  0  0  0  0  0  0
    2.7251   -0.0456   -1.8139 H   0  0  0  0  0  0  0  0  0  0  0  0
   -3.4434   -5.9096   -0.2609 H   0  0  0  0  0  0  0  0  0  0  0  0
   -2.0390   -6.7323    0.4432 H   0  0  0  0  0  0  0  0  0  0  0  0
   -3.0644   -5.6978    1.4551 H   0  0  0  0  0  0  0  0  0  0  0  0
    5.0370    0.3054    2.5502 H   0  0  0  0  0  0  0  0  0  0  0  0
    5.0447   -0.1097   -1.7632 H   0  0  0  0  0  0  0  0  0  0  0  0
    8.3329   -0.0906   -0.6110 H   0  0  0  0  0  0  0  0  0  0  0  0
    7.0159   -1.0338   -1.2998 H   0  0  0  0  0  0  0  0  0  0  0  0
    7.0663    0.7764   -1.4727 H   0  0  0  0  0  0  0  0  0  0  0  0
  1 13  1  0  0  0  0
  1 15  1  0  0  0  0
  2 16  2  0  0  0  0
  3 17  2  0  0  0  0
  4 25  1  0  0  0  0
  4 26  1  0  0  0  0
  5 15  1  0  0  0  0
  5 17  1  0  0  0  0
  5 37  1  0  0  0  0
  6 16  1  0  0  0  0
  6 18  1  0  0  0  0
  6 38  1  0  0  0  0
  7  8  1  0  0  0  0
  7  9  1  0  0  0  0
  7 27  1  0  0  0  0
  7 28  1  0  0  0  0
  8 10  1  0  0  0  0
  8 31  1  0  0  0  0
  8 32  1  0  0  0  0
  9 11  1  0  0  0  0
  9 29  1  0  0  0  0
  9 30  1  0  0  0  0
 10 12  1  0  0  0  0
 10 33  1  0  0  0  0
 10 34  1  0  0  0  0
 11 13  2  0  0  0  0
 11 14  1  0  0  0  0
 12 13  1  0  0  0  0
 12 35  1  0  0  0  0
 12 36  1  0  0  0  0
 14 15  2  0  0  0  0
 14 16  1  0  0  0  0
 17 19  1  0  0  0  0
 18 20  2  0  0  0  0
 18 21  1  0  0  0  0
 19 22  1  0  0  0  0
 19 39  1  0  0  0  0
 19 40  1  0  0  0  0
 20 23  1  0  0  0  0
 20 41  1  0  0  0  0
 21 24  2  0  0  0  0
 21 42  1  0  0  0  0
 22 43  1  0  0  0  0
 22 44  1  0  0  0  0
 22 45  1  0  0  0  0
 23 25  2  0  0  0  0
 23 46  1  0  0  0  0
 24 25  1  0  0  0  0
 24 47  1  0  0  0  0
 26 48  1  0  0  0  0
 26 49  1  0  0  0  0
 26 50  1  0  0  0  0
M  END
> <PUBCHEM_COMPOUND_CID>
1268390

> <PUBCHEM_CONFORMER_RMSD>
0.8

> <PUBCHEM_CONFORMER_DIVERSEORDER>
1
17
13
27
28
24
8
25
19
22
29
33
2
3
32
6
16
20
26
18
9
30
31
12
15
10
5
23
4
21
11
14
7

> <PUBCHEM_MMFF94_PARTIAL_CHARGES>
28
1 -0.08
11 -0.18
12 0.18
13 -0.14
14 -0.09
15 0.1
16 0.72
17 0.57
18 0.12
19 0.06
2 -0.57
20 -0.15
21 -0.15
23 -0.15
24 -0.15
25 0.08
26 0.28
3 -0.57
37 0.37
38 0.37
4 -0.36
41 0.15
42 0.15
46 0.15
47 0.15
5 -0.49
6 -0.55
9 0.18

> <PUBCHEM_EFFECTIVE_ROTOR_COUNT>
8

> <PUBCHEM_PHARMACOPHORE_FEATURES>
9
1 2 acceptor
1 22 hydrophobe
1 3 acceptor
1 4 acceptor
1 5 donor
1 6 donor
5 1 11 13 14 15 rings
6 18 20 21 23 24 25 rings
7 7 8 9 10 11 12 13 rings

> <PUBCHEM_HEAVY_ATOM_COUNT>
26

> <PUBCHEM_ATOM_DEF_STEREO_COUNT>
0

> <PUBCHEM_ATOM_UDEF_STEREO_COUNT>
0

> <PUBCHEM_BOND_DEF_STEREO_COUNT>
0

> <PUBCHEM_BOND_UDEF_STEREO_COUNT>
0

> <PUBCHEM_ISOTOPIC_ATOM_COUNT>
0

> <PUBCHEM_COMPONENT_COUNT>
1

> <PUBCHEM_CACTVS_TAUTO_COUNT>
7

> <PUBCHEM_CONFORMER_ID>
00135AA600000001

> <PUBCHEM_MMFF94_ENERGY>
74.9307

> <PUBCHEM_FEATURE_SELFOVERLAP>
45.693

> <PUBCHEM_SHAPE_FINGERPRINT>
10074138 170 18339067251156000051
10290309 65 17976539412314029229
10319926 262 18270102562379716298
10411042 1 18050569839761198807
107951 10 18199749154702136343
1100329 8 18265614467626455723
11014199 57 18194119852715365272
11049842 53 18047498658855290190
11056379 131 18410294735363685662
11552529 35 18335411413632817994
11796584 16 18340771447705272878
12236239 1 17676488311759731828
12390115 104 18128822936670911697
12788726 201 18117013271191856679
13140716 1 18267019655696538977
13583140 156 17917988395690248254
13911987 19 18189881038518730173
13941206 138 18053667975321896841
14251757 5 18413109455071374096
14844126 61 18334860558349637227
14856354 85 18411985780284274910
15042514 8 18337392750866250807
15230672 131 18193561065598993566
15250474 111 18115008772107632722
15927050 60 18269554927900643535
17844677 252 18411703214549894568
17980427 26 17692521222537723285
20600515 1 18055934309948424507
20609170 109 16678026393526875306
21120745 212 18193007138300313525
21304303 172 18342178925314080711
21650355 55 18338513161830977087
21792961 116 17704080560939014708
21796203 349 17467387798225037531
22956985 138 17399790991695666305
23522609 53 17822876203666793804
23557571 272 18272657848065445420
23559900 14 18194109939941479796
249999 5 17690565187436944833
283562 15 18269549460760462989
4073 2 18412263927030979038
4144715 1 18341618131545200328
4409770 3 18334007320605510535
563151 97 18121769544626550829
59755656 520 18339357444658111692
6673363 416 17905904913827135652
6700243 42 17696233465982733926
7288768 16 17558568919248425401
77188 2 17834394897320484959
79837 15 18338240366951796179
9896288 288 18336554828616741507
9981440 41 18192437368645714641

> <PUBCHEM_SHAPE_MULTIPOLES>
511.35
12.36
6.19
1.16
26.81
8.1
-0.04
-3.22
-0.97
-13.62
-1.5
1.04
-0.27
0

> <PUBCHEM_SHAPE_SELFOVERLAP>
1070.188

> <PUBCHEM_SHAPE_VOLUME>
290

> <PUBCHEM_COORDINATE_TYPE>
2
5
10

$$$$
