1356805
  -OEChem-02101610503D

 40 42  0     0  0  0  0  0  0999 V2000
    5.2159   -4.5762    0.2371 Cl  0  0  0  0  0  0  0  0  0  0  0  0
    5.0707    2.0538   -0.1120 S   0  0  0  0  0  0  0  0  0  0  0  0
    0.4941   -0.2986   -0.1281 O   0  0  0  0  0  0  0  0  0  0  0  0
    0.7869    4.4313   -0.0711 O   0  0  0  0  0  0  0  0  0  0  0  0
   -4.7790   -0.7318    2.7343 O   0  5  0  0  0  0  0  0  0  0  0  0
   -3.4434    0.8041    1.9119 O   0  0  0  0  0  0  0  0  0  0  0  0
    2.6012    0.7434   -0.0667 N   0  0  0  0  0  0  0  0  0  0  0  0
    2.6770    3.1239   -0.0317 N   0  0  0  0  0  0  0  0  0  0  0  0
   -4.2199   -0.1682    1.7649 N   0  3  0  0  0  0  0  0  0  0  0  0
    3.2363   -0.5502    0.0071 C   0  0  0  0  0  0  0  0  0  0  0  0
    0.5465    2.0616   -0.1878 C   0  0  0  0  0  0  0  0  0  0  0  0
    1.1873    0.7193   -0.1411 C   0  0  0  0  0  0  0  0  0  0  0  0
    3.3874    1.9259   -0.0478 C   0  0  0  0  0  0  0  0  0  0  0  0
    1.3102    3.3215   -0.0891 C   0  0  0  0  0  0  0  0  0  0  0  0
   -0.7865    2.1392   -0.3149 C   0  0  0  0  0  0  0  0  0  0  0  0
    3.5994   -1.1963   -1.1638 C   0  0  0  0  0  0  0  0  0  0  0  0
    3.4718   -1.1214    1.2475 C   0  0  0  0  0  0  0  0  0  0  0  0
   -3.8923   -0.0735   -0.6691 C   0  0  0  0  0  0  0  0  0  0  0  0
   -1.6405    0.9798   -0.4216 C   0  0  0  0  0  0  0  0  0  0  0  0
   -2.9738    1.0721   -0.5483 C   0  0  0  0  0  0  0  0  0  0  0  0
    4.2139   -2.4465   -1.0925 C   0  0  0  0  0  0  0  0  0  0  0  0
    4.0864   -2.3715    1.3190 C   0  0  0  0  0  0  0  0  0  0  0  0
   -4.4759   -0.6498    0.4498 C   0  0  0  0  0  0  0  0  0  0  0  0
    4.4574   -3.0340    0.1489 C   0  0  0  0  0  0  0  0  0  0  0  0
   -4.1559   -0.5575   -1.9431 C   0  0  0  0  0  0  0  0  0  0  0  0
   -5.3409   -1.7327    0.2922 C   0  0  0  0  0  0  0  0  0  0  0  0
   -5.0209   -1.6402   -2.1008 C   0  0  0  0  0  0  0  0  0  0  0  0
   -5.6134   -2.2278   -0.9830 C   0  0  0  0  0  0  0  0  0  0  0  0
    3.2418    3.9686    0.0030 H   0  0  0  0  0  0  0  0  0  0  0  0
   -1.2848    3.1055   -0.3437 H   0  0  0  0  0  0  0  0  0  0  0  0
    3.4118   -0.7460   -2.1346 H   0  0  0  0  0  0  0  0  0  0  0  0
    3.1851   -0.6118    2.1632 H   0  0  0  0  0  0  0  0  0  0  0  0
   -1.3471   -0.0501   -0.4774 H   0  0  0  0  0  0  0  0  0  0  0  0
   -3.4629    2.0445   -0.5609 H   0  0  0  0  0  0  0  0  0  0  0  0
    4.4974   -2.9512   -2.0126 H   0  0  0  0  0  0  0  0  0  0  0  0
    4.2699   -2.8173    2.2932 H   0  0  0  0  0  0  0  0  0  0  0  0
   -3.7026   -0.1098   -2.8239 H   0  0  0  0  0  0  0  0  0  0  0  0
   -5.8234   -2.2193    1.1360 H   0  0  0  0  0  0  0  0  0  0  0  0
   -5.2333   -2.0258   -3.0936 H   0  0  0  0  0  0  0  0  0  0  0  0
   -6.2870   -3.0708   -1.1063 H   0  0  0  0  0  0  0  0  0  0  0  0
  1 24  1  0  0  0  0
  2 13  2  0  0  0  0
  3 12  2  0  0  0  0
  4 14  2  0  0  0  0
  5  9  1  0  0  0  0
  6  9  2  0  0  0  0
  7 10  1  0  0  0  0
  7 12  1  0  0  0  0
  7 13  1  0  0  0  0
  8 13  1  0  0  0  0
  8 14  1  0  0  0  0
  8 29  1  0  0  0  0
  9 23  1  0  0  0  0
 10 16  2  0  0  0  0
 10 17  1  0  0  0  0
 11 12  1  0  0  0  0
 11 14  1  0  0  0  0
 11 15  2  0  0  0  0
 15 19  1  0  0  0  0
 15 30  1  0  0  0  0
 16 21  1  0  0  0  0
 16 31  1  0  0  0  0
 17 22  2  0  0  0  0
 17 32  1  0  0  0  0
 18 20  1  0  0  0  0
 18 23  1  0  0  0  0
 18 25  2  0  0  0  0
 19 20  2  0  0  0  0
 19 33  1  0  0  0  0
 20 34  1  0  0  0  0
 21 24  2  0  0  0  0
 21 35  1  0  0  0  0
 22 24  1  0  0  0  0
 22 36  1  0  0  0  0
 23 26  2  0  0  0  0
 25 27  1  0  0  0  0
 25 37  1  0  0  0  0
 26 28  1  0  0  0  0
 26 38  1  0  0  0  0
 27 28  2  0  0  0  0
 27 39  1  0  0  0  0
 28 40  1  0  0  0  0
M  CHG  2   5  -1   9   1
M  END
> <PUBCHEM_COMPOUND_CID>
1356805

> <PUBCHEM_CONFORMER_RMSD>
0.8

> <PUBCHEM_CONFORMER_DIVERSEORDER>
1
3
4
2

> <PUBCHEM_MMFF94_PARTIAL_CHARGES>
40
1 -0.18
10 0.12
11 0.03
12 0.62
13 0.5
14 0.62
15 -0.15
16 -0.15
17 -0.15
18 0.03
19 -0.15
2 -0.38
20 -0.18
21 -0.15
22 -0.15
23 0.13
24 0.18
25 -0.15
26 -0.15
27 -0.15
28 -0.15
29 0.37
3 -0.57
30 0.15
31 0.15
32 0.15
33 0.15
34 0.15
35 0.15
36 0.15
37 0.15
38 0.15
39 0.15
4 -0.57
40 0.15
5 -0.52
6 -0.52
7 -0.24
8 -0.49
9 0.91

> <PUBCHEM_EFFECTIVE_ROTOR_COUNT>
4.4

> <PUBCHEM_PHARMACOPHORE_FEATURES>
11
1 11 anion
1 2 acceptor
1 3 acceptor
1 4 acceptor
1 5 acceptor
1 5 anion
1 6 acceptor
1 8 donor
6 10 16 17 21 22 24 rings
6 18 23 25 26 27 28 rings
6 7 8 11 12 13 14 rings

> <PUBCHEM_HEAVY_ATOM_COUNT>
28

> <PUBCHEM_ATOM_DEF_STEREO_COUNT>
0

> <PUBCHEM_ATOM_UDEF_STEREO_COUNT>
0

> <PUBCHEM_BOND_DEF_STEREO_COUNT>
2

> <PUBCHEM_BOND_UDEF_STEREO_COUNT>
0

> <PUBCHEM_ISOTOPIC_ATOM_COUNT>
0

> <PUBCHEM_COMPONENT_COUNT>
1

> <PUBCHEM_CACTVS_TAUTO_COUNT>
3

> <PUBCHEM_CONFORMER_ID>
0014B40500000001

> <PUBCHEM_MMFF94_ENERGY>
127.0312

> <PUBCHEM_FEATURE_SELFOVERLAP>
55.905

> <PUBCHEM_SHAPE_FINGERPRINT>
10319926 262 15410622466915205039
10622 236 17915155001518181111
10928967 22 18339086999089410751
11135926 11 18263086664276527796
11963148 33 18337378431762251894
11991303 11 17106787648981358508
12107183 9 18199480865919038105
12422481 6 17345754053903546502
12596602 18 17274266187235130673
13009979 54 17917717876631784441
13140716 1 18195247720076646568
13533116 47 18270116954667509411
13544653 18 18334014990741978309
1361 87 17895204268115655979
14863182 85 18337111276285387292
14950920 106 16844712158418548954
17492 89 18411693266592948654
19377110 9 17846493781137503040
19841028 212 18341045324637287511
20645477 70 18262226832892523189
20775530 9 18115030680218006320
23569914 152 17761452987081328999
25222932 49 18342173427418196222
314194 84 18410293635588203292
345986 75 17917713508750466289
34797466 226 16371010749714264919
3737641 26 18411146822557990052
44062 13 18190735341503883765
460360 51 18408890616002377413
46194498 28 16516835708056274887
5104073 3 18201998798468788385
7970288 3 18266734680359295582
86090 222 17459200727617984371

> <PUBCHEM_SHAPE_MULTIPOLES>
543.53
14.38
4.83
1.6
9.36
0.4
-0.58
-13.63
-0.03
-7.95
0.24
2.62
-0.83
-1.07

> <PUBCHEM_SHAPE_SELFOVERLAP>
1167.187

> <PUBCHEM_SHAPE_VOLUME>
300.7

> <PUBCHEM_COORDINATE_TYPE>
2
5
10

$$$$
