948589
  -OEChem-02101610513D

 22 23  0     0  0  0  0  0  0999 V2000
   -0.4039    2.7612   -0.5841 Cl  0  0  0  0  0  0  0  0  0  0  0  0
   -3.9163   -2.3386    0.1817 Cl  0  0  0  0  0  0  0  0  0  0  0  0
    0.7472    0.3742    2.3909 O   0  0  0  0  0  0  0  0  0  0  0  0
    3.5608   -0.7956   -1.9740 O   0  0  0  0  0  0  0  0  0  0  0  0
   -0.7517    0.0946   -0.0825 C   0  0  0  0  0  0  0  0  0  0  0  0
    0.7082   -0.0632    0.0486 C   0  0  0  0  0  0  0  0  0  0  0  0
   -1.3429    1.3259   -0.3650 C   0  0  0  0  0  0  0  0  0  0  0  0
   -1.5472   -1.0387    0.0865 C   0  0  0  0  0  0  0  0  0  0  0  0
    1.3775    0.1213    1.3686 C   0  0  0  0  0  0  0  0  0  0  0  0
    1.4400   -0.3592   -1.0353 C   0  0  0  0  0  0  0  0  0  0  0  0
   -2.9340   -0.9406   -0.0269 C   0  0  0  0  0  0  0  0  0  0  0  0
   -2.7297    1.4241   -0.4783 C   0  0  0  0  0  0  0  0  0  0  0  0
    2.9088   -0.5156   -0.9741 C   0  0  0  0  0  0  0  0  0  0  0  0
    2.8478   -0.0217    1.4199 C   0  0  0  0  0  0  0  0  0  0  0  0
   -3.5252    0.2909   -0.3092 C   0  0  0  0  0  0  0  0  0  0  0  0
    3.5608   -0.3190    0.3333 C   0  0  0  0  0  0  0  0  0  0  0  0
   -1.0899   -2.0012    0.3083 H   0  0  0  0  0  0  0  0  0  0  0  0
    0.9837   -0.4955   -2.0117 H   0  0  0  0  0  0  0  0  0  0  0  0
   -3.2067    2.3759   -0.6979 H   0  0  0  0  0  0  0  0  0  0  0  0
    3.3322    0.1203    2.3797 H   0  0  0  0  0  0  0  0  0  0  0  0
   -4.6045    0.3822   -0.4004 H   0  0  0  0  0  0  0  0  0  0  0  0
    4.6385   -0.4246    0.3830 H   0  0  0  0  0  0  0  0  0  0  0  0
  1  7  1  0  0  0  0
  2 11  1  0  0  0  0
  3  9  2  0  0  0  0
  4 13  2  0  0  0  0
  5  6  1  0  0  0  0
  5  7  2  0  0  0  0
  5  8  1  0  0  0  0
  6  9  1  0  0  0  0
  6 10  2  0  0  0  0
  7 12  1  0  0  0  0
  8 11  2  0  0  0  0
  8 17  1  0  0  0  0
  9 14  1  0  0  0  0
 10 13  1  0  0  0  0
 10 18  1  0  0  0  0
 11 15  1  0  0  0  0
 12 15  2  0  0  0  0
 12 19  1  0  0  0  0
 13 16  1  0  0  0  0
 14 16  2  0  0  0  0
 14 20  1  0  0  0  0
 15 21  1  0  0  0  0
 16 22  1  0  0  0  0
M  END
> <PUBCHEM_COMPOUND_CID>
948589

> <PUBCHEM_CONFORMER_RMSD>
0.6

> <PUBCHEM_CONFORMER_DIVERSEORDER>
1
3
4
2

> <PUBCHEM_MMFF94_PARTIAL_CHARGES>
22
1 -0.18
10 -0.14
11 0.18
12 -0.15
13 0.54
14 -0.14
15 -0.15
16 -0.14
17 0.15
18 0.15
19 0.15
2 -0.18
20 0.15
21 0.15
22 0.15
3 -0.57
4 -0.57
5 0.03
6 -0.01
7 0.18
8 -0.15
9 0.54

> <PUBCHEM_EFFECTIVE_ROTOR_COUNT>
1

> <PUBCHEM_PHARMACOPHORE_FEATURES>
4
1 3 acceptor
1 4 acceptor
6 5 7 8 11 12 15 rings
6 6 9 10 13 14 16 rings

> <PUBCHEM_HEAVY_ATOM_COUNT>
16

> <PUBCHEM_ATOM_DEF_STEREO_COUNT>
0

> <PUBCHEM_ATOM_UDEF_STEREO_COUNT>
0

> <PUBCHEM_BOND_DEF_STEREO_COUNT>
0

> <PUBCHEM_BOND_UDEF_STEREO_COUNT>
0

> <PUBCHEM_ISOTOPIC_ATOM_COUNT>
0

> <PUBCHEM_COMPONENT_COUNT>
1

> <PUBCHEM_CACTVS_TAUTO_COUNT>
1

> <PUBCHEM_CONFORMER_ID>
000E796D00000001

> <PUBCHEM_MMFF94_ENERGY>
41.7528

> <PUBCHEM_FEATURE_SELFOVERLAP>
20.297

> <PUBCHEM_SHAPE_FINGERPRINT>
10465860 71 18334584554833895573
11543360 7 18263097603426173838
12236239 1 17312819346897147374
12553582 1 18188494695968536507
13296908 3 18060700584831772239
13538477 17 17895182256302053889
14817 1 14680162281779345992
15219456 202 17846773018383478722
15375462 189 17603301544801786801
15501101 241 17632576105872564306
15775835 57 16660655024456575756
16752209 62 18041543824539252331
16945 1 18335983047693607285
17844478 74 17917990572616129584
18175812 5 18060695096005843405
18186145 218 18059297548007359176
19049666 15 17773594914559393610
19422 9 17386002849463800131
19862831 5 17312821571753737751
200 152 16153697717817544251
20279233 1 17988635285606639030
20600515 1 18337656547520584021
20645477 70 16630240303633566868
20715346 28 17988635320182492679
20871999 31 18334020505701246823
22112679 90 17822006471749856757
22802520 49 18128819642440811028
228727 97 17531256036448434132
23175994 123 17203616947506963152
23382010 3 16299237975989413443
23402539 116 18260259746677011654
23526113 38 17702934825844576842
23557571 272 18412542119903608752
23559900 14 18340486643590357286
2748010 2 18266443468807132717
474 4 16806742869995961124
57096353 35 17240489134121267935
5902787 121 18261386814756806473
6049 1 18060420213693214209
6442390 28 17765724520719866953
7364860 26 18051976123575073429
77492 1 17312819346902422124
81228 2 18339080372239449425

> <PUBCHEM_SHAPE_MULTIPOLES>
321.27
6.58
1.97
1.48
0.42
0.97
-0.35
-3.1
1.12
2.21
0.25
-1.8
-0.19
0.33

> <PUBCHEM_SHAPE_SELFOVERLAP>
679.832

> <PUBCHEM_SHAPE_VOLUME>
180.9

> <PUBCHEM_COORDINATE_TYPE>
2
5
10

$$$$
