886534
  -OEChem-02101610513D

 31 33  0     0  0  0  0  0  0999 V2000
   -2.0213    3.0247    0.2690 S   0  0  0  0  0  0  0  0  0  0  0  0
   -2.6871   -0.1452   -2.1898 F   0  0  0  0  0  0  0  0  0  0  0  0
    4.2610   -0.5387    1.1437 O   0  0  0  0  0  0  0  0  0  0  0  0
   -0.5017   -1.8897    0.1331 O   0  0  0  0  0  0  0  0  0  0  0  0
    2.6551    1.6318   -0.1743 O   0  0  0  0  0  0  0  0  0  0  0  0
   -1.2351    0.3445    0.1443 N   0  0  0  0  0  0  0  0  0  0  0  0
    0.4030    2.0657   -0.0212 N   0  0  0  0  0  0  0  0  0  0  0  0
    1.1463   -0.1999    0.0617 C   0  0  0  0  0  0  0  0  0  0  0  0
   -2.6049   -0.1077    0.1839 C   0  0  0  0  0  0  0  0  0  0  0  0
   -0.2598   -0.6822    0.1315 C   0  0  0  0  0  0  0  0  0  0  0  0
   -0.9436    1.7339    0.1073 C   0  0  0  0  0  0  0  0  0  0  0  0
    1.5019    1.2281   -0.0606 C   0  0  0  0  0  0  0  0  0  0  0  0
    2.1420   -1.0977    0.1007 C   0  0  0  0  0  0  0  0  0  0  0  0
   -3.2820   -0.3365   -1.0035 C   0  0  0  0  0  0  0  0  0  0  0  0
   -3.2168   -0.3058    1.4115 C   0  0  0  0  0  0  0  0  0  0  0  0
    3.5781   -0.7889    0.0307 C   0  0  0  0  0  0  0  0  0  0  0  0
   -4.6055   -0.7751   -0.9619 C   0  0  0  0  0  0  0  0  0  0  0  0
   -4.5403   -0.7441    1.4528 C   0  0  0  0  0  0  0  0  0  0  0  0
   -5.2347   -0.9787    0.2662 C   0  0  0  0  0  0  0  0  0  0  0  0
    4.3062   -0.7317   -1.0952 C   0  0  0  0  0  0  0  0  0  0  0  0
    5.6096   -0.4067   -0.6495 C   0  0  0  0  0  0  0  0  0  0  0  0
    5.5297   -0.3000    0.7195 C   0  0  0  0  0  0  0  0  0  0  0  0
    0.6074    3.0604   -0.0685 H   0  0  0  0  0  0  0  0  0  0  0  0
    1.9254   -2.1594    0.1900 H   0  0  0  0  0  0  0  0  0  0  0  0
   -2.6825   -0.1271    2.3406 H   0  0  0  0  0  0  0  0  0  0  0  0
   -5.1459   -0.9580   -1.8860 H   0  0  0  0  0  0  0  0  0  0  0  0
   -5.0301   -0.9031    2.4091 H   0  0  0  0  0  0  0  0  0  0  0  0
   -6.2651   -1.3202    0.2984 H   0  0  0  0  0  0  0  0  0  0  0  0
    3.9824   -0.8945   -2.1134 H   0  0  0  0  0  0  0  0  0  0  0  0
    6.4964   -0.2672   -1.2508 H   0  0  0  0  0  0  0  0  0  0  0  0
    6.2468   -0.0727    1.4948 H   0  0  0  0  0  0  0  0  0  0  0  0
  1 11  2  0  0  0  0
  2 14  1  0  0  0  0
  3 16  1  0  0  0  0
  3 22  1  0  0  0  0
  4 10  2  0  0  0  0
  5 12  2  0  0  0  0
  6  9  1  0  0  0  0
  6 10  1  0  0  0  0
  6 11  1  0  0  0  0
  7 11  1  0  0  0  0
  7 12  1  0  0  0  0
  7 23  1  0  0  0  0
  8 10  1  0  0  0  0
  8 12  1  0  0  0  0
  8 13  2  0  0  0  0
  9 14  1  0  0  0  0
  9 15  2  0  0  0  0
 13 16  1  0  0  0  0
 13 24  1  0  0  0  0
 14 17  2  0  0  0  0
 15 18  1  0  0  0  0
 15 25  1  0  0  0  0
 16 20  2  0  0  0  0
 17 19  1  0  0  0  0
 17 26  1  0  0  0  0
 18 19  2  0  0  0  0
 18 27  1  0  0  0  0
 19 28  1  0  0  0  0
 20 21  1  0  0  0  0
 20 29  1  0  0  0  0
 21 22  2  0  0  0  0
 21 30  1  0  0  0  0
 22 31  1  0  0  0  0
M  END
> <PUBCHEM_COMPOUND_CID>
886534

> <PUBCHEM_CONFORMER_RMSD>
0.6

> <PUBCHEM_CONFORMER_DIVERSEORDER>
1
4
2
3

> <PUBCHEM_MMFF94_PARTIAL_CHARGES>
31
1 -0.38
10 0.62
11 0.5
12 0.62
13 -0.11
14 0.19
15 -0.15
16 0.09
17 -0.15
18 -0.15
19 -0.15
2 -0.19
20 -0.15
21 -0.15
22 -0.01
23 0.37
24 0.15
25 0.15
26 0.15
27 0.15
28 0.15
29 0.15
3 -0.28
30 0.15
31 0.15
4 -0.57
5 -0.57
6 -0.24
7 -0.49
8 0.03
9 0.12

> <PUBCHEM_EFFECTIVE_ROTOR_COUNT>
2.4

> <PUBCHEM_PHARMACOPHORE_FEATURES>
9
1 1 acceptor
1 3 acceptor
1 4 acceptor
1 5 acceptor
1 7 donor
1 8 anion
5 3 16 20 21 22 rings
6 6 7 8 10 11 12 rings
6 9 14 15 17 18 19 rings

> <PUBCHEM_HEAVY_ATOM_COUNT>
22

> <PUBCHEM_ATOM_DEF_STEREO_COUNT>
0

> <PUBCHEM_ATOM_UDEF_STEREO_COUNT>
0

> <PUBCHEM_BOND_DEF_STEREO_COUNT>
0

> <PUBCHEM_BOND_UDEF_STEREO_COUNT>
1

> <PUBCHEM_ISOTOPIC_ATOM_COUNT>
0

> <PUBCHEM_COMPONENT_COUNT>
1

> <PUBCHEM_CACTVS_TAUTO_COUNT>
3

> <PUBCHEM_CONFORMER_ID>
000D870600000001

> <PUBCHEM_MMFF94_ENERGY>
86.3594

> <PUBCHEM_FEATURE_SELFOVERLAP>
45.673

> <PUBCHEM_SHAPE_FINGERPRINT>
10366900 7 18334862718633589754
10670039 82 18189351095609725598
11315181 36 17676212360158033864
11543360 7 15719397247754075498
11552529 35 15410027682468812724
11796584 16 16732980920669770746
12107183 9 15550543971556442954
12236239 1 17775569775662619475
12553582 1 18412541011601495310
12596602 18 16487257685517576746
13009979 54 17488742427898191583
13140716 1 18266461095205268146
13583140 156 14620793756384537187
13862211 1 18410008844881260234
14840074 17 18130788983846241886
16752209 62 18336257955881379416
17349148 13 18335139791263345274
17357779 13 18410281502311036061
1813 80 18272665540225311052
18222031 100 18342452655747344962
19141452 34 17632294600984401655
19489759 90 14923942349225381782
200 152 18334855017683231475
20028762 73 18129384967918478983
20602899 9 15647062563954327265
21236236 1 18339364054539018080
21267235 1 18411146843705460498
21641784 216 18041860432063777564
22182313 1 17843979052005543477
23175994 123 18261114110420156677
23402539 116 18341891878973424991
23536379 177 15502371218910832250
23557571 272 17988087699210119468
23559900 14 16515404113804575687
23569943 247 17700711570521925718
25147074 1 18337129907083682484
26918003 58 18186522111682884483
283562 15 18338798914326109041
314173 85 18272091590876299705
34797466 226 16515982414187975678
34934 24 18194121811711283529
350125 39 18411143519343270960
5104073 3 18411143549592457761
7495541 125 17603872242738949286
8863177 126 17752219528680772715

> <PUBCHEM_SHAPE_MULTIPOLES>
421.76
11.75
2
1.2
7.13
1.91
-0.19
-4.78
0.41
-1.02
0.08
-0.85
-0.27
0.01

> <PUBCHEM_SHAPE_SELFOVERLAP>
922.232

> <PUBCHEM_SHAPE_VOLUME>
231.7

> <PUBCHEM_COORDINATE_TYPE>
2
5
10

$$$$
