2263390
  -OEChem-02101610503D

 34 36  0     0  0  0  0  0  0999 V2000
   -0.6307   -1.3799   -0.0250 S   0  0  0  0  0  0  0  0  0  0  0  0
    1.7939   -3.1176    0.0731 S   0  0  0  0  0  0  0  0  0  0  0  0
    1.1653    1.9730    0.1455 O   0  0  0  0  0  0  0  0  0  0  0  0
    7.2427    0.5171   -0.1629 O   0  0  0  0  0  0  0  0  0  0  0  0
   -5.6591   -0.0077   -2.1052 O   0  0  0  0  0  0  0  0  0  0  0  0
   -6.9137   -0.5733    0.3083 O   0  0  0  0  0  0  0  0  0  0  0  0
    1.7308   -0.3235    0.0328 N   0  0  0  0  0  0  0  0  0  0  0  0
    3.1490   -0.1076   -0.0170 C   0  0  0  0  0  0  0  0  0  0  0  0
   -0.5354    0.3202    0.1357 C   0  0  0  0  0  0  0  0  0  0  0  0
    0.8718    0.7837    0.1246 C   0  0  0  0  0  0  0  0  0  0  0  0
   -2.9624    0.7001    0.2591 C   0  0  0  0  0  0  0  0  0  0  0  0
   -1.5779    1.1453    0.2463 C   0  0  0  0  0  0  0  0  0  0  0  0
    1.1245   -1.5837   -0.0047 C   0  0  0  0  0  0  0  0  0  0  0  0
    3.8833   -0.0634    1.1639 C   0  0  0  0  0  0  0  0  0  0  0  0
    3.7787    0.0567   -1.2468 C   0  0  0  0  0  0  0  0  0  0  0  0
   -3.6598    0.5559   -0.9403 C   0  0  0  0  0  0  0  0  0  0  0  0
   -3.5925    0.4166    1.4708 C   0  0  0  0  0  0  0  0  0  0  0  0
    5.2613    0.1470    1.1146 C   0  0  0  0  0  0  0  0  0  0  0  0
    5.1568    0.2671   -1.2961 C   0  0  0  0  0  0  0  0  0  0  0  0
    5.8980    0.3124   -0.1154 C   0  0  0  0  0  0  0  0  0  0  0  0
   -4.9873    0.1280   -0.9280 C   0  0  0  0  0  0  0  0  0  0  0  0
   -4.9201   -0.0111    1.4830 C   0  0  0  0  0  0  0  0  0  0  0  0
   -5.6174   -0.1554    0.2837 C   0  0  0  0  0  0  0  0  0  0  0  0
   -1.4348    2.2182    0.3428 H   0  0  0  0  0  0  0  0  0  0  0  0
    3.3960   -0.1901    2.1270 H   0  0  0  0  0  0  0  0  0  0  0  0
    3.2096    0.0235   -2.1721 H   0  0  0  0  0  0  0  0  0  0  0  0
   -3.1772    0.7759   -1.8902 H   0  0  0  0  0  0  0  0  0  0  0  0
   -3.0625    0.5245    2.4141 H   0  0  0  0  0  0  0  0  0  0  0  0
    5.8273    0.1801    2.0417 H   0  0  0  0  0  0  0  0  0  0  0  0
    5.6471    0.3952   -2.2573 H   0  0  0  0  0  0  0  0  0  0  0  0
   -5.3990   -0.2284    2.4340 H   0  0  0  0  0  0  0  0  0  0  0  0
   -6.5624   -0.3111   -1.9087 H   0  0  0  0  0  0  0  0  0  0  0  0
    7.5934    0.5188    0.7444 H   0  0  0  0  0  0  0  0  0  0  0  0
   -7.1814   -0.7209    1.2316 H   0  0  0  0  0  0  0  0  0  0  0  0
  1  9  1  0  0  0  0
  1 13  1  0  0  0  0
  2 13  2  0  0  0  0
  3 10  2  0  0  0  0
  4 20  1  0  0  0  0
  4 33  1  0  0  0  0
  5 21  1  0  0  0  0
  5 32  1  0  0  0  0
  6 23  1  0  0  0  0
  6 34  1  0  0  0  0
  7  8  1  0  0  0  0
  7 10  1  0  0  0  0
  7 13  1  0  0  0  0
  8 14  2  0  0  0  0
  8 15  1  0  0  0  0
  9 10  1  0  0  0  0
  9 12  2  0  0  0  0
 11 12  1  0  0  0  0
 11 16  2  0  0  0  0
 11 17  1  0  0  0  0
 12 24  1  0  0  0  0
 14 18  1  0  0  0  0
 14 25  1  0  0  0  0
 15 19  2  0  0  0  0
 15 26  1  0  0  0  0
 16 21  1  0  0  0  0
 16 27  1  0  0  0  0
 17 22  2  0  0  0  0
 17 28  1  0  0  0  0
 18 20  2  0  0  0  0
 18 29  1  0  0  0  0
 19 20  1  0  0  0  0
 19 30  1  0  0  0  0
 21 23  2  0  0  0  0
 22 23  1  0  0  0  0
 22 31  1  0  0  0  0
M  END
> <PUBCHEM_COMPOUND_CID>
2263390

> <PUBCHEM_CONFORMER_RMSD>
0.6

> <PUBCHEM_CONFORMER_DIVERSEORDER>
1
5
4
6
2
3

> <PUBCHEM_MMFF94_PARTIAL_CHARGES>
34
1 -0.24
10 0.62
11 0.03
12 -0.18
13 0.58
14 -0.15
15 -0.15
16 -0.15
17 -0.15
18 -0.15
19 -0.15
2 -0.38
20 0.08
21 0.08
22 -0.15
23 0.08
24 0.15
25 0.15
26 0.15
27 0.15
28 0.15
29 0.15
3 -0.57
30 0.15
31 0.15
32 0.45
33 0.45
34 0.45
4 -0.53
5 -0.53
6 -0.53
7 -0.24
8 0.12
9 0.12

> <PUBCHEM_EFFECTIVE_ROTOR_COUNT>
2.4

> <PUBCHEM_PHARMACOPHORE_FEATURES>
8
1 2 acceptor
1 3 acceptor
1 4 donor
1 5 donor
1 6 donor
5 1 7 9 10 13 rings
6 11 16 17 21 22 23 rings
6 8 14 15 18 19 20 rings

> <PUBCHEM_HEAVY_ATOM_COUNT>
23

> <PUBCHEM_ATOM_DEF_STEREO_COUNT>
0

> <PUBCHEM_ATOM_UDEF_STEREO_COUNT>
0

> <PUBCHEM_BOND_DEF_STEREO_COUNT>
1

> <PUBCHEM_BOND_UDEF_STEREO_COUNT>
0

> <PUBCHEM_ISOTOPIC_ATOM_COUNT>
0

> <PUBCHEM_COMPONENT_COUNT>
1

> <PUBCHEM_CACTVS_TAUTO_COUNT>
20

> <PUBCHEM_CONFORMER_ID>
0022895E00000001

> <PUBCHEM_MMFF94_ENERGY>
81.5959

> <PUBCHEM_FEATURE_SELFOVERLAP>
40.601

> <PUBCHEM_SHAPE_FINGERPRINT>
10 15 17749386014549546368
10090160 65 18333452019229187882
10299344 5 15626225723190435221
10366900 7 18342455937123341825
10595046 47 16128656353453668472
10670039 82 18262813856744404452
11315181 36 16487255487253560601
11545043 162 13901902311333225127
11646440 116 18130795576499981784
11719270 70 18260542299416759418
11963148 33 18260826033599613219
12107183 9 15361600599035851880
12236239 1 17561367262435087089
12596602 18 17060620005896100443
12730499 353 17418099810788588078
13140716 1 18268149940506567392
13533116 47 18130506328439891562
13583140 156 16877952662742347841
13631057 29 18200025283157467015
13862211 1 18411980252154988258
14123256 10 18411420613410361957
1420 363 18059858371851774689
14341114 176 15410897366191406265
14787075 74 17847056705411123016
14849402 71 17417527050771674224
14933364 13 15410896266669241928
15131766 46 16083361006645289220
15183329 4 16343985784268316551
15537594 2 18202280299737685087
15788980 27 14273462470066572345
15849732 13 17821450171323441414
19489759 90 15502376729680875085
200 152 18343017779624189633
21054139 6 18271516585118841215
21150785 3 18261394485294292060
21344244 181 17632030675661307702
21521721 280 18343023337011307528
21641784 216 18115604655358681028
22224240 67 18412824707408529842
22956985 138 17827068507890597258
23035841 295 16917349229527851199
23402539 116 15791730810662858287
23516275 137 14763530221414813071
23536379 177 15647050460541028160
23557571 272 17095242502147972453
23559900 14 16009033933885851733
23569914 152 16690476820802770405
23569914 2 15506558326503433437
23569917 315 18410017615685338602
23569943 247 17557725576508192174
34797466 226 17095819762156950871
4073 2 16916781933378996950
4325135 7 17748828527166518071
465052 167 17676493847755967514
474229 33 18334861623195454194
5104073 3 18194688073020855867
5758199 1 18201723959163679042
59755656 520 18202560687850449038
7495541 125 17458634453043532564

> <PUBCHEM_SHAPE_MULTIPOLES>
452.57
16.56
1.64
1.31
1.9
1.45
-0.18
-2.16
-1.26
-0.98
0.05
0.88
-0.11
-0.08

> <PUBCHEM_SHAPE_SELFOVERLAP>
969.703

> <PUBCHEM_SHAPE_VOLUME>
252.7

> <PUBCHEM_COORDINATE_TYPE>
2
5
10

$$$$
