1832270
  -OEChem-02101610503D

 41 42  0     0  0  0  0  0  0999 V2000
    2.4259   -1.7560    0.0465 S   0  0  0  0  0  0  0  0  0  0  0  0
   -0.2366   -1.0714    0.2336 O   0  0  0  0  0  0  0  0  0  0  0  0
    4.4687    2.3902    1.0456 O   0  0  0  0  0  0  0  0  0  0  0  0
   -6.4812   -0.7971   -0.1874 O   0  5  0  0  0  0  0  0  0  0  0  0
   -5.4729   -0.3422   -2.0835 O   0  0  0  0  0  0  0  0  0  0  0  0
   -2.3308    0.7114    0.3817 N   0  0  0  0  0  0  0  0  0  0  0  0
    1.3751    0.6500    0.1531 N   0  0  0  0  0  0  0  0  0  0  0  0
   -2.8631    0.4624    1.5819 N   0  0  0  0  0  0  0  0  0  0  0  0
   -5.4673   -0.3953   -0.8225 N   0  3  0  0  0  0  0  0  0  0  0  0
    4.3066    2.4312   -1.2415 N   0  0  0  0  0  0  0  0  0  0  0  0
   -3.1466    0.4558   -0.6692 C   0  0  0  0  0  0  0  0  0  0  0  0
   -0.9636    1.2199    0.3146 C   0  0  0  0  0  0  0  0  0  0  0  0
   -4.3180   -0.0016   -0.1168 C   0  0  0  0  0  0  0  0  0  0  0  0
    4.7704   -0.7144   -0.0880 C   0  0  0  0  0  0  0  0  0  0  0  0
    3.8571    0.3765   -0.0119 C   0  0  0  0  0  0  0  0  0  0  0  0
   -4.0859    0.0238    1.2714 C   0  0  0  0  0  0  0  0  0  0  0  0
    2.5490   -0.0482    0.0656 C   0  0  0  0  0  0  0  0  0  0  0  0
    0.0742    0.1150    0.2299 C   0  0  0  0  0  0  0  0  0  0  0  0
    4.1254   -1.9315   -0.0657 C   0  0  0  0  0  0  0  0  0  0  0  0
   -2.7444    0.6676   -2.0735 C   0  0  0  0  0  0  0  0  0  0  0  0
    6.2440   -0.5608   -0.1799 C   0  0  0  0  0  0  0  0  0  0  0  0
   -5.0107   -0.3651    2.3516 C   0  0  0  0  0  0  0  0  0  0  0  0
    4.7054   -3.2922   -0.1235 C   0  0  0  0  0  0  0  0  0  0  0  0
    4.2192    1.7721   -0.0121 C   0  0  0  0  0  0  0  0  0  0  0  0
   -0.7895    1.8024    1.2275 H   0  0  0  0  0  0  0  0  0  0  0  0
   -0.8776    1.9032   -0.5349 H   0  0  0  0  0  0  0  0  0  0  0  0
    1.4683    1.6629    0.1627 H   0  0  0  0  0  0  0  0  0  0  0  0
   -1.6646    0.7722   -2.2069 H   0  0  0  0  0  0  0  0  0  0  0  0
   -3.0356   -0.1834   -2.6977 H   0  0  0  0  0  0  0  0  0  0  0  0
   -3.2211    1.5679   -2.4744 H   0  0  0  0  0  0  0  0  0  0  0  0
    6.5874    0.3450    0.3301 H   0  0  0  0  0  0  0  0  0  0  0  0
    6.7679   -1.4041    0.2819 H   0  0  0  0  0  0  0  0  0  0  0  0
    6.5521   -0.4997   -1.2289 H   0  0  0  0  0  0  0  0  0  0  0  0
   -5.3000   -1.4166    2.2554 H   0  0  0  0  0  0  0  0  0  0  0  0
   -4.5541   -0.2398    3.3396 H   0  0  0  0  0  0  0  0  0  0  0  0
   -5.9158    0.2503    2.3285 H   0  0  0  0  0  0  0  0  0  0  0  0
    5.4745   -3.3518   -0.9011 H   0  0  0  0  0  0  0  0  0  0  0  0
    5.1701   -3.5470    0.8348 H   0  0  0  0  0  0  0  0  0  0  0  0
    3.9582   -4.0605   -0.3491 H   0  0  0  0  0  0  0  0  0  0  0  0
    4.1191    1.9583   -2.1199 H   0  0  0  0  0  0  0  0  0  0  0  0
    4.5642    3.4112   -1.2907 H   0  0  0  0  0  0  0  0  0  0  0  0
  1 17  1  0  0  0  0
  1 19  1  0  0  0  0
  2 18  2  0  0  0  0
  3 24  2  0  0  0  0
  4  9  1  0  0  0  0
  5  9  2  0  0  0  0
  6  8  1  0  0  0  0
  6 11  1  0  0  0  0
  6 12  1  0  0  0  0
  7 17  1  0  0  0  0
  7 18  1  0  0  0  0
  7 27  1  0  0  0  0
  8 16  2  0  0  0  0
  9 13  1  0  0  0  0
 10 24  1  0  0  0  0
 10 40  1  0  0  0  0
 10 41  1  0  0  0  0
 11 13  2  0  0  0  0
 11 20  1  0  0  0  0
 12 18  1  0  0  0  0
 12 25  1  0  0  0  0
 12 26  1  0  0  0  0
 13 16  1  0  0  0  0
 14 15  1  0  0  0  0
 14 19  2  0  0  0  0
 14 21  1  0  0  0  0
 15 17  2  0  0  0  0
 15 24  1  0  0  0  0
 16 22  1  0  0  0  0
 19 23  1  0  0  0  0
 20 28  1  0  0  0  0
 20 29  1  0  0  0  0
 20 30  1  0  0  0  0
 21 31  1  0  0  0  0
 21 32  1  0  0  0  0
 21 33  1  0  0  0  0
 22 34  1  0  0  0  0
 22 35  1  0  0  0  0
 22 36  1  0  0  0  0
 23 37  1  0  0  0  0
 23 38  1  0  0  0  0
 23 39  1  0  0  0  0
M  CHG  2   4  -1   9   1
M  END
> <PUBCHEM_COMPOUND_CID>
1832270

> <PUBCHEM_CONFORMER_RMSD>
0.8

> <PUBCHEM_CONFORMER_DIVERSEORDER>
1
127
128
81
121
83
72
17
65
50
4
125
119
124
122
118
126
93
38
111
16
53
41
75
102
106
71
12
89
73
67
66
79
19
86
101
114
74
46
33
87
52
91
36
62
82
58
77
90
31
84
110
47
85
116
64
78
123
113
25
69
76
30
109
22
15
23
104
92
21
32
61
54
129
14
112
5
49
56
107
115
2
59
42
37
108
63
117
70
88
3
26
39
57
51
27
80
8
43
45
55
48
120
96
40
24
20
10
11
105
18
60
98
7
35
44
95
103
9
99
34
68
97
28
29
100
6
13
94

> <PUBCHEM_MMFF94_PARTIAL_CHARGES>
27
1 -0.08
10 -0.8
11 -0.33
12 0.32
13 0.08
14 -0.18
15 -0.09
16 0.11
17 0.1
18 0.57
19 -0.14
2 -0.57
20 0.18
21 0.18
22 0.18
23 0.18
24 0.72
27 0.37
3 -0.57
4 -0.52
40 0.37
41 0.37
5 -0.52
6 0.31
7 -0.49
8 -0.71
9 0.96

> <PUBCHEM_EFFECTIVE_ROTOR_COUNT>
6

> <PUBCHEM_PHARMACOPHORE_FEATURES>
10
1 10 donor
1 2 acceptor
1 3 acceptor
1 4 acceptor
1 4 anion
1 5 acceptor
1 7 donor
1 8 acceptor
5 1 14 15 17 19 rings
5 6 8 11 13 16 rings

> <PUBCHEM_HEAVY_ATOM_COUNT>
24

> <PUBCHEM_ATOM_DEF_STEREO_COUNT>
0

> <PUBCHEM_ATOM_UDEF_STEREO_COUNT>
0

> <PUBCHEM_BOND_DEF_STEREO_COUNT>
0

> <PUBCHEM_BOND_UDEF_STEREO_COUNT>
0

> <PUBCHEM_ISOTOPIC_ATOM_COUNT>
0

> <PUBCHEM_COMPONENT_COUNT>
1

> <PUBCHEM_CACTVS_TAUTO_COUNT>
7

> <PUBCHEM_CONFORMER_ID>
001BF54E00000001

> <PUBCHEM_MMFF94_ENERGY>
55.4419

> <PUBCHEM_FEATURE_SELFOVERLAP>
50.83

> <PUBCHEM_SHAPE_FINGERPRINT>
10912923 1 17632298977618996369
12107183 9 17552932727880293154
12236239 1 17561083588192443256
12403259 415 17822015297849510648
12596602 18 16559029385358042626
12616971 3 18060144201883190691
12730499 353 18335431188142088978
13167823 11 18060136509670707326
13533116 47 18342458136494691376
13760787 5 18342181063527312241
13955234 65 18412546518503696586
14849402 71 17203033193549827176
15799311 1 16845302656355393511
15961568 22 16371017364101395844
17349148 13 18059576841378443658
17844677 252 18410296878209702445
17857418 61 18059851749065231135
17870717 6 17095249081942969523
19377110 9 17560795537452114650
19489759 90 16081088173490530785
200 152 18341327817113986971
20028762 73 18058725802310238718
20645477 70 18336261263264848354
21033648 29 18040425586416248532
21065201 7 16732985284546037632
22061861 79 18260264122985085167
23081809 10 18060142042021075457
23522609 53 17702408280382714457
23557571 272 17313382283971143621
23559900 14 17022627463660955556
23569914 152 17181056974940129615
239999 70 17894915139986440160
312423 11 18270695160023233848
314194 84 18343867727296682435
341906 21 15502373417902303076
34797466 226 17168156636501317007
4015057 19 18409169947837620457
4325135 7 18343019990783286943
46194498 28 17894352181432619716
5104073 3 18336268933649353984
5281201 14 18260549979166015572
5283173 99 17603855655765637525
90127 26 18113618954300752881

> <PUBCHEM_SHAPE_MULTIPOLES>
449.38
16.14
2.2
1.49
6.49
0.36
-0.03
3.17
-1.01
-5.15
-0.12
3.05
-0.2
0.39

> <PUBCHEM_SHAPE_SELFOVERLAP>
941.022

> <PUBCHEM_SHAPE_VOLUME>
258.8

> <PUBCHEM_COORDINATE_TYPE>
2
5
10

$$$$
