455248
  -OEChem-02101610533D

 54 58  0     1  0  0  0  0  0999 V2000
   -3.1275   -1.8339    0.3234 O   0  0  0  0  0  0  0  0  0  0  0  0
    1.6407   -1.3808    0.1670 O   0  0  0  0  0  0  0  0  0  0  0  0
   -3.8203    1.5867   -1.0726 O   0  0  0  0  0  0  0  0  0  0  0  0
   -1.1322    2.5603    0.0589 O   0  0  0  0  0  0  0  0  0  0  0  0
   -0.2127    4.6478   -0.0671 O   0  0  0  0  0  0  0  0  0  0  0  0
   -4.5884    0.1014    0.6972 C   0  0  2  0  0  0  0  0  0  0  0  0
   -3.5015    1.0707    0.2174 C   0  0  1  0  0  0  0  0  0  0  0  0
   -4.4180   -1.2751    0.0352 C   0  0  1  0  0  0  0  0  0  0  0  0
   -2.1516    0.3949    0.1919 C   0  0  0  0  0  0  0  0  0  0  0  0
   -2.0400   -0.9991    0.2404 C   0  0  0  0  0  0  0  0  0  0  0  0
   -0.7711   -1.6115    0.2337 C   0  0  0  0  0  0  0  0  0  0  0  0
   -0.9698    1.1552    0.1168 C   0  0  0  0  0  0  0  0  0  0  0  0
    0.3904   -0.8194    0.1538 C   0  0  0  0  0  0  0  0  0  0  0  0
    0.3083    0.5869    0.0995 C   0  0  0  0  0  0  0  0  0  0  0  0
   -5.9978    0.6691    0.5313 C   0  0  0  0  0  0  0  0  0  0  0  0
    1.8018   -2.7877   -0.0880 C   0  0  0  0  0  0  0  0  0  0  0  0
   -4.6692   -1.3556   -1.4704 C   0  0  0  0  0  0  0  0  0  0  0  0
   -0.6347   -3.0649    0.3217 C   0  0  0  0  0  0  0  0  0  0  0  0
    1.4781    1.4956    0.0240 C   0  0  0  0  0  0  0  0  0  0  0  0
    0.5706   -3.6131    0.1617 C   0  0  0  0  0  0  0  0  0  0  0  0
    2.9224   -3.2527    0.8499 C   0  0  0  0  0  0  0  0  0  0  0  0
    2.2522   -2.9468   -1.5446 C   0  0  0  0  0  0  0  0  0  0  0  0
    1.2720    2.8221   -0.0287 C   0  0  0  0  0  0  0  0  0  0  0  0
    2.9035    1.1031   -0.0007 C   0  0  0  0  0  0  0  0  0  0  0  0
   -0.0635    3.4323   -0.0159 C   0  0  0  0  0  0  0  0  0  0  0  0
    3.5350    0.8651   -1.2179 C   0  0  0  0  0  0  0  0  0  0  0  0
    3.6050    0.9760    1.1945 C   0  0  0  0  0  0  0  0  0  0  0  0
    4.8803    0.4970   -1.2399 C   0  0  0  0  0  0  0  0  0  0  0  0
    4.9503    0.6078    1.1724 C   0  0  0  0  0  0  0  0  0  0  0  0
    5.5879    0.3683   -0.0449 C   0  0  0  0  0  0  0  0  0  0  0  0
   -4.4206   -0.0506    1.7744 H   0  0  0  0  0  0  0  0  0  0  0  0
   -3.4648    1.9178    0.9145 H   0  0  0  0  0  0  0  0  0  0  0  0
   -5.1370   -1.9553    0.5096 H   0  0  0  0  0  0  0  0  0  0  0  0
   -6.7390   -0.0197    0.9506 H   0  0  0  0  0  0  0  0  0  0  0  0
   -6.0919    1.6216    1.0637 H   0  0  0  0  0  0  0  0  0  0  0  0
   -6.2623    0.8437   -0.5156 H   0  0  0  0  0  0  0  0  0  0  0  0
   -4.5712   -2.3946   -1.8059 H   0  0  0  0  0  0  0  0  0  0  0  0
   -5.6710   -1.0093   -1.7372 H   0  0  0  0  0  0  0  0  0  0  0  0
   -3.9322   -0.7861   -2.0439 H   0  0  0  0  0  0  0  0  0  0  0  0
   -1.5034   -3.6900    0.4902 H   0  0  0  0  0  0  0  0  0  0  0  0
    0.6664   -4.6953    0.1919 H   0  0  0  0  0  0  0  0  0  0  0  0
   -4.5281    2.2438   -0.9626 H   0  0  0  0  0  0  0  0  0  0  0  0
    3.8337   -2.6640    0.6913 H   0  0  0  0  0  0  0  0  0  0  0  0
    3.1681   -4.3105    0.7045 H   0  0  0  0  0  0  0  0  0  0  0  0
    2.6401   -3.1052    1.8994 H   0  0  0  0  0  0  0  0  0  0  0  0
    3.1607   -2.3650   -1.7382 H   0  0  0  0  0  0  0  0  0  0  0  0
    1.4906   -2.5665   -2.2358 H   0  0  0  0  0  0  0  0  0  0  0  0
    2.4539   -3.9933   -1.7983 H   0  0  0  0  0  0  0  0  0  0  0  0
    2.0995    3.5258   -0.0850 H   0  0  0  0  0  0  0  0  0  0  0  0
    2.9957    0.9591   -2.1571 H   0  0  0  0  0  0  0  0  0  0  0  0
    3.1211    1.1577    2.1509 H   0  0  0  0  0  0  0  0  0  0  0  0
    5.3763    0.3089   -2.1876 H   0  0  0  0  0  0  0  0  0  0  0  0
    5.5010    0.5063    2.1030 H   0  0  0  0  0  0  0  0  0  0  0  0
    6.6350    0.0805   -0.0620 H   0  0  0  0  0  0  0  0  0  0  0  0
  1  8  1  0  0  0  0
  1 10  1  0  0  0  0
  2 13  1  0  0  0  0
  2 16  1  0  0  0  0
  3  7  1  0  0  0  0
  3 42  1  0  0  0  0
  4 12  1  0  0  0  0
  4 25  1  0  0  0  0
  5 25  2  0  0  0  0
  6  7  1  0  0  0  0
  6  8  1  0  0  0  0
  6 15  1  0  0  0  0
  6 31  1  0  0  0  0
  7  9  1  0  0  0  0
  7 32  1  0  0  0  0
  8 17  1  0  0  0  0
  8 33  1  0  0  0  0
  9 10  2  0  0  0  0
  9 12  1  0  0  0  0
 10 11  1  0  0  0  0
 11 13  2  0  0  0  0
 11 18  1  0  0  0  0
 12 14  2  0  0  0  0
 13 14  1  0  0  0  0
 14 19  1  0  0  0  0
 15 34  1  0  0  0  0
 15 35  1  0  0  0  0
 15 36  1  0  0  0  0
 16 20  1  0  0  0  0
 16 21  1  0  0  0  0
 16 22  1  0  0  0  0
 17 37  1  0  0  0  0
 17 38  1  0  0  0  0
 17 39  1  0  0  0  0
 18 20  2  0  0  0  0
 18 40  1  0  0  0  0
 19 23  2  0  0  0  0
 19 24  1  0  0  0  0
 20 41  1  0  0  0  0
 21 43  1  0  0  0  0
 21 44  1  0  0  0  0
 21 45  1  0  0  0  0
 22 46  1  0  0  0  0
 22 47  1  0  0  0  0
 22 48  1  0  0  0  0
 23 25  1  0  0  0  0
 23 49  1  0  0  0  0
 24 26  2  0  0  0  0
 24 27  1  0  0  0  0
 26 28  1  0  0  0  0
 26 50  1  0  0  0  0
 27 29  2  0  0  0  0
 27 51  1  0  0  0  0
 28 30  2  0  0  0  0
 28 52  1  0  0  0  0
 29 30  1  0  0  0  0
 29 53  1  0  0  0  0
 30 54  1  0  0  0  0
M  END
> <PUBCHEM_COMPOUND_CID>
455248

> <PUBCHEM_CONFORMER_RMSD>
0.6

> <PUBCHEM_CONFORMER_DIVERSEORDER>
2
1

> <PUBCHEM_MMFF94_PARTIAL_CHARGES>
34
1 -0.36
10 0.08
11 0.03
12 0.08
13 0.08
14 0.03
16 0.42
18 -0.18
19 -0.06
2 -0.36
20 -0.29
23 -0.14
24 0.03
25 0.71
26 -0.15
27 -0.15
28 -0.15
29 -0.15
3 -0.68
30 -0.15
4 -0.23
40 0.15
41 0.15
42 0.4
49 0.15
5 -0.57
50 0.15
51 0.15
52 0.15
53 0.15
54 0.15
7 0.42
8 0.28
9 -0.14

> <PUBCHEM_EFFECTIVE_ROTOR_COUNT>
2.2

> <PUBCHEM_PHARMACOPHORE_FEATURES>
11
1 1 acceptor
1 2 acceptor
1 3 acceptor
1 3 donor
1 5 acceptor
3 16 21 22 hydrophobe
6 1 6 7 8 9 10 rings
6 2 11 13 16 18 20 rings
6 24 26 27 28 29 30 rings
6 4 12 14 19 23 25 rings
6 9 10 11 12 13 14 rings

> <PUBCHEM_HEAVY_ATOM_COUNT>
30

> <PUBCHEM_ATOM_DEF_STEREO_COUNT>
3

> <PUBCHEM_ATOM_UDEF_STEREO_COUNT>
0

> <PUBCHEM_BOND_DEF_STEREO_COUNT>
0

> <PUBCHEM_BOND_UDEF_STEREO_COUNT>
0

> <PUBCHEM_ISOTOPIC_ATOM_COUNT>
0

> <PUBCHEM_COMPONENT_COUNT>
1

> <PUBCHEM_CACTVS_TAUTO_COUNT>
1

> <PUBCHEM_CONFORMER_ID>
0006F25000000002

> <PUBCHEM_MMFF94_ENERGY>
112.9419

> <PUBCHEM_FEATURE_SELFOVERLAP>
55.902

> <PUBCHEM_SHAPE_FINGERPRINT>
10675989 125 17540800712738833917
10693767 8 18202557397710607703
10906281 52 18335435589697681344
10930396 42 18052223428525396232
10967382 1 18410295800267538315
1100329 8 18266461103536369408
11513181 2 18059293145851089239
11578080 2 17242441720774816279
11646440 116 18272664475437405777
11963148 33 18261670475883557699
12236239 1 17676486164508224872
12403260 363 18124027103563546287
12422481 6 18192405534247825202
12553582 1 18409445907712429561
12838862 33 18338501011020759312
13140716 1 18122627424738985992
13402501 40 18342182167887775758
138480 1 18338237064084638859
13911987 19 18261968439043863356
14394314 77 18411136948248971672
14466204 15 18337947995300053864
14790565 3 18337401555175174380
14955137 171 18264506116259984033
15081414 286 18339935835361775449
15420108 30 17626410947008718777
15927050 60 17547298160290587972
1601671 61 18408885156887447096
16112460 7 17911811167720497825
16728300 4 17534313705930336026
17093844 170 18412831291846445916
17349148 13 18334572464411338120
19591789 44 18193561292376704355
20028762 73 18057322997139551815
20642791 35 18051137995150951739
20691752 17 17243034362385637320
20721686 56 18336268946930206082
20739085 24 18122652499275174257
20775438 99 16546613975109508031
20905425 154 18269843012905193646
21033648 29 17773303733383836896
21421861 104 18116152160429532682
22113638 7 18267580397957551598
22182313 1 18262234400746140141
2334 1 18410295800251869915
23402539 116 18343299301091257485
23558518 356 17973168322642849304
23559900 14 18270690887042750060
23566358 2 18338517417652963919
24771293 8 18129091393918136088
266924 87 18265894657569824644
3178227 256 18263943192403245449
3298306 158 18410011052409781703
335352 9 18410014381500091957
338550 245 18334579044770786174
34934 24 18412825772428679999
350125 39 18265616473070455282
352729 6 17978798127204051803
3680242 22 18334579023016407634
4093350 32 17274833389680642615
463206 1 18410857693627635703
469060 322 18338811030255687616
484989 97 17903354054854813367
5104073 3 18337682906377913107
5265222 85 18192444176200657068
59755656 215 18409168783537226094
6004065 56 17984971846122998045
6138700 20 18411705374686199478
70251023 43 17982749475383566051

> <PUBCHEM_SHAPE_MULTIPOLES>
588.04
10.27
4.52
1.06
3.49
0.04
0.23
0.96
0.21
-1.27
0.11
-0.49
-0.25
-0.09

> <PUBCHEM_SHAPE_SELFOVERLAP>
1309.951

> <PUBCHEM_SHAPE_VOLUME>
312.7

> <PUBCHEM_COORDINATE_TYPE>
2
5
10

$$$$
