673586
  -OEChem-02101610503D

 30 31  0     0  0  0  0  0  0999 V2000
   -5.1270   -2.2786    0.0089 Br  0  0  0  0  0  0  0  0  0  0  0  0
    1.7599    1.8820    0.0122 S   0  0  0  0  0  0  0  0  0  0  0  0
   -2.8580   -0.4939   -0.0057 O   0  0  0  0  0  0  0  0  0  0  0  0
    1.6615   -2.7092   -1.1166 O   0  0  0  0  0  0  0  0  0  0  0  0
   -0.9903    2.4486    0.0024 O   0  0  0  0  0  0  0  0  0  0  0  0
   -0.2636    0.2062   -0.0255 N   0  0  0  0  0  0  0  0  0  0  0  0
    1.6313   -2.7395    1.1761 N   0  0  0  0  0  0  0  0  0  0  0  0
    3.3906   -0.1033   -0.0055 C   0  0  0  0  0  0  0  0  0  0  0  0
    2.0819   -0.6666   -0.0221 C   0  0  0  0  0  0  0  0  0  0  0  0
    3.3608    1.2738    0.0138 C   0  0  0  0  0  0  0  0  0  0  0  0
    1.1019    0.3014   -0.0146 C   0  0  0  0  0  0  0  0  0  0  0  0
    4.6406   -0.9036   -0.0094 C   0  0  0  0  0  0  0  0  0  0  0  0
    4.4922    2.2280    0.0337 C   0  0  0  0  0  0  0  0  0  0  0  0
    1.7780   -2.0759   -0.0452 C   0  0  0  0  0  0  0  0  0  0  0  0
   -1.2274    1.2456   -0.0170 C   0  0  0  0  0  0  0  0  0  0  0  0
   -2.6518    0.8205   -0.0053 C   0  0  0  0  0  0  0  0  0  0  0  0
   -3.7588    1.5653    0.0042 C   0  0  0  0  0  0  0  0  0  0  0  0
   -4.8108    0.6185    0.0109 C   0  0  0  0  0  0  0  0  0  0  0  0
   -4.2109   -0.6193    0.0045 C   0  0  0  0  0  0  0  0  0  0  0  0
    4.5107   -1.8513   -0.5420 H   0  0  0  0  0  0  0  0  0  0  0  0
    5.4602   -0.3710   -0.5030 H   0  0  0  0  0  0  0  0  0  0  0  0
    4.9480   -1.1281    1.0172 H   0  0  0  0  0  0  0  0  0  0  0  0
   -0.6251   -0.7450   -0.0377 H   0  0  0  0  0  0  0  0  0  0  0  0
    5.2494    1.9145    0.7603 H   0  0  0  0  0  0  0  0  0  0  0  0
    4.9659    2.2745   -0.9526 H   0  0  0  0  0  0  0  0  0  0  0  0
    4.1840    3.2430    0.3061 H   0  0  0  0  0  0  0  0  0  0  0  0
   -3.8454    2.6422    0.0062 H   0  0  0  0  0  0  0  0  0  0  0  0
    1.7275   -2.2585    2.0647 H   0  0  0  0  0  0  0  0  0  0  0  0
    1.4236   -3.7321    1.2087 H   0  0  0  0  0  0  0  0  0  0  0  0
   -5.8725    0.8227    0.0192 H   0  0  0  0  0  0  0  0  0  0  0  0
  1 19  1  0  0  0  0
  2 10  1  0  0  0  0
  2 11  1  0  0  0  0
  3 16  1  0  0  0  0
  3 19  1  0  0  0  0
  4 14  2  0  0  0  0
  5 15  2  0  0  0  0
  6 11  1  0  0  0  0
  6 15  1  0  0  0  0
  6 23  1  0  0  0  0
  7 14  1  0  0  0  0
  7 28  1  0  0  0  0
  7 29  1  0  0  0  0
  8  9  1  0  0  0  0
  8 10  2  0  0  0  0
  8 12  1  0  0  0  0
  9 11  2  0  0  0  0
  9 14  1  0  0  0  0
 10 13  1  0  0  0  0
 12 20  1  0  0  0  0
 12 21  1  0  0  0  0
 12 22  1  0  0  0  0
 13 24  1  0  0  0  0
 13 25  1  0  0  0  0
 13 26  1  0  0  0  0
 15 16  1  0  0  0  0
 16 17  2  0  0  0  0
 17 18  1  0  0  0  0
 17 27  1  0  0  0  0
 18 19  2  0  0  0  0
 18 30  1  0  0  0  0
M  END
> <PUBCHEM_COMPOUND_CID>
673586

> <PUBCHEM_CONFORMER_RMSD>
0.6

> <PUBCHEM_CONFORMER_DIVERSEORDER>
2
22
8
23
9
12
31
25
32
11
14
7
21
17
29
1
24
15
16
26
13
10
20
6
4
18
30
5
3
33
19
27
28

> <PUBCHEM_MMFF94_PARTIAL_CHARGES>
24
1 -0.06
10 -0.14
11 0.1
12 0.18
13 0.18
14 0.72
15 0.71
16 0.05
17 -0.15
18 -0.15
19 0.2
2 -0.08
23 0.37
27 0.15
28 0.37
29 0.37
3 -0.28
30 0.15
4 -0.57
5 -0.57
6 -0.49
7 -0.8
8 -0.18
9 -0.09

> <PUBCHEM_EFFECTIVE_ROTOR_COUNT>
4

> <PUBCHEM_PHARMACOPHORE_FEATURES>
8
1 1 hydrophobe
1 3 acceptor
1 4 acceptor
1 5 acceptor
1 6 donor
1 7 donor
5 2 8 9 10 11 rings
5 3 16 17 18 19 rings

> <PUBCHEM_HEAVY_ATOM_COUNT>
19

> <PUBCHEM_ATOM_DEF_STEREO_COUNT>
0

> <PUBCHEM_ATOM_UDEF_STEREO_COUNT>
0

> <PUBCHEM_BOND_DEF_STEREO_COUNT>
0

> <PUBCHEM_BOND_UDEF_STEREO_COUNT>
0

> <PUBCHEM_ISOTOPIC_ATOM_COUNT>
0

> <PUBCHEM_COMPONENT_COUNT>
1

> <PUBCHEM_CACTVS_TAUTO_COUNT>
7

> <PUBCHEM_CONFORMER_ID>
000A473200000002

> <PUBCHEM_MMFF94_ENERGY>
41.6275

> <PUBCHEM_FEATURE_SELFOVERLAP>
40.596

> <PUBCHEM_SHAPE_FINGERPRINT>
10090160 65 18260826054936318204
10616163 171 18413671305666200231
108634 29 18115318893809403803
11488393 25 17773339875608434046
11806522 49 18408886243487857580
11961588 58 17824566251701055468
12107183 9 17693100661039515729
12596602 18 17346047778685758139
13134695 92 11386365976092765254
13167823 11 18412543215109420919
13911882 115 18270413796378315919
14178342 30 18052527773754226744
146900 427 18130231557115580033
14787075 74 18269273645774870129
15196674 1 18410856581267717293
15375358 24 18186240632332085225
17492 89 18339924814502697703
18681886 176 18411417354295452256
19050596 39 18412262805063274441
200 152 18272931605049228401
20028762 73 18342171185467340438
20261772 1 18059855129373441455
20645477 70 18340767052850585045
21197605 99 18123194764403003179
21267235 1 18411708663987310071
21421861 104 17970908851769413585
21618674 54 18408882923873763613
21673915 165 18339079405839938455
21709351 56 18335134280720266668
221490 88 18410863122561197698
23402539 116 18259980461706249988
23557571 272 16733544905863096125
23559900 14 18196929976728782254
239999 70 18272376356230456590
2871803 45 18408319969155798733
33824 294 18409166610478901050
34934 24 18411976962510927733
4214541 1 18410856530192619205
4280585 95 17621609306927078614
474229 33 18338516472971128922
5104073 3 18412825785081474169
58051976 378 18340764836652741462
7364860 26 18341895134943731204
77779 3 18411983555053774309
9709674 26 18408892823699865763
9999458 23 18333732403969709070

> <PUBCHEM_SHAPE_MULTIPOLES>
373.23
10.82
3.02
0.71
7.3
1.24
0.01
0.93
0.04
-0.68
0.04
-0.14
0.3
0.02

> <PUBCHEM_SHAPE_SELFOVERLAP>
774.169

> <PUBCHEM_SHAPE_VOLUME>
218

> <PUBCHEM_COORDINATE_TYPE>
2
5
10

$$$$
