5458937
  -OEChem-02101610533D

 66 73  0     0  0  0  0  0  0999 V2000
   -9.6061    0.3446    2.1391 I   0  0  0  0  0  0  0  0  0  0  0  0
    9.6835    1.0159    1.7253 I   0  0  0  0  0  0  0  0  0  0  0  0
   -4.5013   -0.2626    0.1092 N   0  0  0  0  0  0  0  0  0  0  0  0
   -5.1490    1.2115   -2.1932 N   0  0  0  0  0  0  0  0  0  0  0  0
    4.6059   -0.0490   -0.1383 N   0  0  0  0  0  0  0  0  0  0  0  0
    0.0511   -0.7918   -1.6978 N   0  0  0  0  0  0  0  0  0  0  0  0
    3.6560    2.4874    0.7773 N   0  0  0  0  0  0  0  0  0  0  0  0
   -3.5010   -0.0403   -0.9167 C   0  0  0  0  0  0  0  0  0  0  0  0
   -5.8362    0.2794   -0.0551 C   0  0  0  0  0  0  0  0  0  0  0  0
   -3.8481    0.7033   -2.0698 C   0  0  0  0  0  0  0  0  0  0  0  0
   -6.1417    1.0206   -1.2215 C   0  0  0  0  0  0  0  0  0  0  0  0
    3.2582    0.3083   -0.3391 C   0  0  0  0  0  0  0  0  0  0  0  0
   -2.1856   -0.5300   -0.8124 C   0  0  0  0  0  0  0  0  0  0  0  0
   -4.1760   -1.0028    1.2638 C   0  0  0  0  0  0  0  0  0  0  0  0
    5.4881    0.8682    0.5276 C   0  0  0  0  0  0  0  0  0  0  0  0
   -1.2500   -0.2934   -1.8228 C   0  0  0  0  0  0  0  0  0  0  0  0
   -2.9008    0.9337   -3.0767 C   0  0  0  0  0  0  0  0  0  0  0  0
    2.8553    1.6616    0.1750 C   0  0  0  0  0  0  0  0  0  0  0  0
   -6.8529    0.0945    0.9004 C   0  0  0  0  0  0  0  0  0  0  0  0
    4.9920    2.1095    0.9693 C   0  0  0  0  0  0  0  0  0  0  0  0
   -1.6066    0.4360   -2.9525 C   0  0  0  0  0  0  0  0  0  0  0  0
    2.3090   -0.4389   -0.9328 C   0  0  0  0  0  0  0  0  0  0  0  0
   -7.4234    1.5567   -1.4057 C   0  0  0  0  0  0  0  0  0  0  0  0
    0.9044   -0.0109   -1.1151 C   0  0  0  0  0  0  0  0  0  0  0  0
    5.0692   -1.3227   -0.5981 C   0  0  0  0  0  0  0  0  0  0  0  0
    1.4490    2.0922   -0.0123 C   0  0  0  0  0  0  0  0  0  0  0  0
   -8.1272    0.6338    0.7054 C   0  0  0  0  0  0  0  0  0  0  0  0
    0.5405    1.3231   -0.6088 C   0  0  0  0  0  0  0  0  0  0  0  0
   -8.4118    1.3641   -0.4440 C   0  0  0  0  0  0  0  0  0  0  0  0
   -3.6715   -0.3528    2.3907 C   0  0  0  0  0  0  0  0  0  0  0  0
   -4.3588   -2.3858    1.2814 C   0  0  0  0  0  0  0  0  0  0  0  0
    6.8477    0.5754    0.7554 C   0  0  0  0  0  0  0  0  0  0  0  0
    5.8413    3.0155    1.6216 C   0  0  0  0  0  0  0  0  0  0  0  0
    5.0025   -2.4362    0.2415 C   0  0  0  0  0  0  0  0  0  0  0  0
    5.5882   -1.4554   -1.8873 C   0  0  0  0  0  0  0  0  0  0  0  0
    7.6838    1.4855    1.4057 C   0  0  0  0  0  0  0  0  0  0  0  0
    7.1808    2.7054    1.8397 C   0  0  0  0  0  0  0  0  0  0  0  0
   -3.3502   -1.0849    3.5337 C   0  0  0  0  0  0  0  0  0  0  0  0
   -4.0377   -3.1180    2.4245 C   0  0  0  0  0  0  0  0  0  0  0  0
   -3.5333   -2.4675    3.5506 C   0  0  0  0  0  0  0  0  0  0  0  0
    5.4531   -3.6780   -0.2066 C   0  0  0  0  0  0  0  0  0  0  0  0
    6.0387   -2.6971   -2.3354 C   0  0  0  0  0  0  0  0  0  0  0  0
    5.9712   -3.8084   -1.4950 C   0  0  0  0  0  0  0  0  0  0  0  0
   -5.3823    1.7419   -3.0222 H   0  0  0  0  0  0  0  0  0  0  0  0
   -1.8683   -1.1056    0.0537 H   0  0  0  0  0  0  0  0  0  0  0  0
   -3.1677    1.5045   -3.9629 H   0  0  0  0  0  0  0  0  0  0  0  0
   -6.6596   -0.4712    1.8084 H   0  0  0  0  0  0  0  0  0  0  0  0
    2.5318   -1.4275   -1.3235 H   0  0  0  0  0  0  0  0  0  0  0  0
   -0.8839    0.6228   -3.7425 H   0  0  0  0  0  0  0  0  0  0  0  0
   -7.6575    2.1269   -2.3014 H   0  0  0  0  0  0  0  0  0  0  0  0
    1.1732    3.0739    0.3601 H   0  0  0  0  0  0  0  0  0  0  0  0
   -0.4608    1.7242   -0.6975 H   0  0  0  0  0  0  0  0  0  0  0  0
   -9.3971    1.7908   -0.6124 H   0  0  0  0  0  0  0  0  0  0  0  0
   -3.5243    0.7244    2.3899 H   0  0  0  0  0  0  0  0  0  0  0  0
   -4.7512   -2.9043    0.4102 H   0  0  0  0  0  0  0  0  0  0  0  0
    7.2665   -0.3725    0.4259 H   0  0  0  0  0  0  0  0  0  0  0  0
    5.4571    3.9741    1.9630 H   0  0  0  0  0  0  0  0  0  0  0  0
    4.6009   -2.3471    1.2477 H   0  0  0  0  0  0  0  0  0  0  0  0
    5.6460   -0.5965   -2.5513 H   0  0  0  0  0  0  0  0  0  0  0  0
    7.8118    3.4297    2.3479 H   0  0  0  0  0  0  0  0  0  0  0  0
   -2.9575   -0.5784    4.4105 H   0  0  0  0  0  0  0  0  0  0  0  0
   -4.1803   -4.1946    2.4376 H   0  0  0  0  0  0  0  0  0  0  0  0
   -3.2833   -3.0376    4.4405 H   0  0  0  0  0  0  0  0  0  0  0  0
    5.4006   -4.5432    0.4477 H   0  0  0  0  0  0  0  0  0  0  0  0
    6.4421   -2.7986   -3.3386 H   0  0  0  0  0  0  0  0  0  0  0  0
    6.3221   -4.7751   -1.8440 H   0  0  0  0  0  0  0  0  0  0  0  0
  1 27  1  0  0  0  0
  2 36  1  0  0  0  0
  3  8  1  0  0  0  0
  3  9  1  0  0  0  0
  3 14  1  0  0  0  0
  4 10  1  0  0  0  0
  4 11  1  0  0  0  0
  4 44  1  0  0  0  0
  5 12  1  0  0  0  0
  5 15  1  0  0  0  0
  5 25  1  0  0  0  0
  6 16  1  0  0  0  0
  6 24  2  0  0  0  0
  7 18  2  0  0  0  0
  7 20  1  0  0  0  0
  8 10  2  0  0  0  0
  8 13  1  0  0  0  0
  9 11  2  0  0  0  0
  9 19  1  0  0  0  0
 10 17  1  0  0  0  0
 11 23  1  0  0  0  0
 12 18  1  0  0  0  0
 12 22  2  0  0  0  0
 13 16  2  0  0  0  0
 13 45  1  0  0  0  0
 14 30  2  0  0  0  0
 14 31  1  0  0  0  0
 15 20  2  0  0  0  0
 15 32  1  0  0  0  0
 16 21  1  0  0  0  0
 17 21  2  0  0  0  0
 17 46  1  0  0  0  0
 18 26  1  0  0  0  0
 19 27  2  0  0  0  0
 19 47  1  0  0  0  0
 20 33  1  0  0  0  0
 21 49  1  0  0  0  0
 22 24  1  0  0  0  0
 22 48  1  0  0  0  0
 23 29  2  0  0  0  0
 23 50  1  0  0  0  0
 24 28  1  0  0  0  0
 25 34  2  0  0  0  0
 25 35  1  0  0  0  0
 26 28  2  0  0  0  0
 26 51  1  0  0  0  0
 27 29  1  0  0  0  0
 28 52  1  0  0  0  0
 29 53  1  0  0  0  0
 30 38  1  0  0  0  0
 30 54  1  0  0  0  0
 31 39  2  0  0  0  0
 31 55  1  0  0  0  0
 32 36  2  0  0  0  0
 32 56  1  0  0  0  0
 33 37  2  0  0  0  0
 33 57  1  0  0  0  0
 34 41  1  0  0  0  0
 34 58  1  0  0  0  0
 35 42  2  0  0  0  0
 35 59  1  0  0  0  0
 36 37  1  0  0  0  0
 37 60  1  0  0  0  0
 38 40  2  0  0  0  0
 38 61  1  0  0  0  0
 39 40  1  0  0  0  0
 39 62  1  0  0  0  0
 40 63  1  0  0  0  0
 41 43  2  0  0  0  0
 41 64  1  0  0  0  0
 42 43  1  0  0  0  0
 42 65  1  0  0  0  0
 43 66  1  0  0  0  0
M  END
> <PUBCHEM_COMPOUND_CID>
5458937

> <PUBCHEM_CONFORMER_RMSD>
0.8

> <PUBCHEM_CONFORMER_DIVERSEORDER>
2
1

> <PUBCHEM_MMFF94_PARTIAL_CHARGES>
66
1 -0.08
10 0.1
11 0.1
12 0.11
13 -0.15
14 0.1
15 0.1
16 0.18
17 -0.15
18 0.42
19 -0.15
2 -0.08
20 0.18
21 -0.15
22 -0.14
23 -0.15
24 0.42
25 0.1
26 -0.14
27 0.08
28 -0.14
29 -0.15
3 -0.3
30 -0.15
31 -0.15
32 -0.15
33 -0.15
34 -0.15
35 -0.15
36 0.08
37 -0.15
38 -0.15
39 -0.15
4 -0.6
40 -0.15
41 -0.15
42 -0.15
43 -0.15
44 0.4
45 0.15
46 0.15
47 0.15
48 0.15
49 0.15
5 -0.3
50 0.15
51 0.15
52 0.15
53 0.15
54 0.15
55 0.15
56 0.15
57 0.15
58 0.15
59 0.15
6 -0.63
60 0.15
61 0.15
62 0.15
63 0.15
64 0.15
65 0.15
66 0.15
7 -0.63
8 0.1
9 0.1

> <PUBCHEM_EFFECTIVE_ROTOR_COUNT>
3.4

> <PUBCHEM_PHARMACOPHORE_FEATURES>
16
1 1 hydrophobe
1 2 hydrophobe
1 3 cation
1 4 cation
1 4 donor
1 5 cation
1 6 acceptor
1 7 acceptor
6 12 18 22 24 26 28 rings
6 14 30 31 38 39 40 rings
6 15 20 32 33 36 37 rings
6 25 34 35 41 42 43 rings
6 3 4 8 9 10 11 rings
6 5 7 12 15 18 20 rings
6 8 10 13 16 17 21 rings
6 9 11 19 23 27 29 rings

> <PUBCHEM_HEAVY_ATOM_COUNT>
43

> <PUBCHEM_ATOM_DEF_STEREO_COUNT>
0

> <PUBCHEM_ATOM_UDEF_STEREO_COUNT>
0

> <PUBCHEM_BOND_DEF_STEREO_COUNT>
0

> <PUBCHEM_BOND_UDEF_STEREO_COUNT>
0

> <PUBCHEM_ISOTOPIC_ATOM_COUNT>
0

> <PUBCHEM_COMPONENT_COUNT>
1

> <PUBCHEM_CACTVS_TAUTO_COUNT>
1

> <PUBCHEM_CONFORMER_ID>
00534BF900000002

> <PUBCHEM_MMFF94_ENERGY>
178.6206

> <PUBCHEM_FEATURE_SELFOVERLAP>
81.308

> <PUBCHEM_SHAPE_FINGERPRINT>
10462674 125 17194887095582044966
10533779 47 18337124376019834947
12422481 6 16987174733652576902
12728209 76 16701751445104389561
13751561 76 18335415735082581722
13782708 43 18261114084408020063
14017581 57 18338800006028523747
14118638 360 13182751333380637621
14347424 109 17988639662805872806
14705955 166 18261388911239950325
15131766 46 17701809097805738440
15276724 80 17846207843780384444
15320294 125 15502370141085362843
15328684 2 16056603118660229914
15328829 1 16917065607542590312
1577012 14 17060613408715759093
16112460 7 17489868237404999326
19315958 150 18342738529076554348
19611394 137 17895466025372335436
21033648 29 18260547861298816766
21781055 127 17533236176356786813
249057 25 16200157555763663214
3383291 50 17240489130986694715
354706 132 13254258084677447290
3918712 181 14836401436655573706
394071 54 18131912668288509294
4197921 191 15913331269077437174
4516262 110 17703787068396266736
563151 74 18343303678127090727
6009941 240 18187639236618503425
6371009 1 15339120135044778731
6636735 143 18261109729041747315
6691757 9 17458615740830625931
6698420 124 18338808815096002369
9896288 288 16661470828548281853

> <PUBCHEM_SHAPE_MULTIPOLES>
883.89
29.92
3.38
3.28
2.76
1.78
1.61
-11.63
10.7
-10.78
0.8
7.15
1.17
3.93

> <PUBCHEM_SHAPE_SELFOVERLAP>
1954.847

> <PUBCHEM_SHAPE_VOLUME>
479.1

> <PUBCHEM_COORDINATE_TYPE>
2
5
10

$$$$
