1839046
  -OEChem-02101610503D

 46 49  0     0  0  0  0  0  0999 V2000
    7.0229   -5.2794   -0.7585 Cl  0  0  0  0  0  0  0  0  0  0  0  0
   -5.1719   -0.1407   -1.0547 S   0  0  0  0  0  0  0  0  0  0  0  0
    4.8614    2.5366    1.4110 S   0  0  0  0  0  0  0  0  0  0  0  0
   -8.1687   -0.8057    1.8167 S   0  0  0  0  0  0  0  0  0  0  0  0
   -6.0331    0.7265   -1.8491 O   0  0  0  0  0  0  0  0  0  0  0  0
   -4.8922   -1.4941   -1.5187 O   0  0  0  0  0  0  0  0  0  0  0  0
   -5.7739   -0.1922    0.5547 N   0  0  0  0  0  0  0  0  0  0  0  0
    0.0399    2.6041   -0.2440 N   0  0  0  0  0  0  0  0  0  0  0  0
    3.7947    0.6174    0.0466 N   0  0  0  0  0  0  0  0  0  0  0  0
   -6.7991   -2.3719    0.2827 N   0  0  0  0  0  0  0  0  0  0  0  0
    2.6618    5.2298    0.0485 N   0  0  0  0  0  0  0  0  0  0  0  0
   -3.6416    0.6655   -0.8170 C   0  0  0  0  0  0  0  0  0  0  0  0
   -1.1890    1.9570   -0.4355 C   0  0  0  0  0  0  0  0  0  0  0  0
   -3.5673    2.0566   -0.8887 C   0  0  0  0  0  0  0  0  0  0  0  0
   -2.4933   -0.0816   -0.5551 C   0  0  0  0  0  0  0  0  0  0  0  0
   -2.3445    2.7005   -0.6986 C   0  0  0  0  0  0  0  0  0  0  0  0
   -1.2705    0.5622   -0.3648 C   0  0  0  0  0  0  0  0  0  0  0  0
    5.5049   -1.1411    0.1982 C   0  0  0  0  0  0  0  0  0  0  0  0
    5.0214    0.1768    0.5011 C   0  0  0  0  0  0  0  0  0  0  0  0
    1.2558    2.0522    0.0194 C   0  0  0  0  0  0  0  0  0  0  0  0
    3.6050    1.8488    0.4660 C   0  0  0  0  0  0  0  0  0  0  0  0
   -6.8417   -1.1824    0.8144 C   0  0  0  0  0  0  0  0  0  0  0  0
    2.4640    2.6408    0.2044 C   0  0  0  0  0  0  0  0  0  0  0  0
    5.7447    1.0747    1.2564 C   0  0  0  0  0  0  0  0  0  0  0  0
    6.8759   -1.3729    0.0886 C   0  0  0  0  0  0  0  0  0  0  0  0
    4.6032   -2.1891    0.0122 C   0  0  0  0  0  0  0  0  0  0  0  0
    7.3453   -2.6528   -0.2072 C   0  0  0  0  0  0  0  0  0  0  0  0
    5.0727   -3.4689   -0.2834 C   0  0  0  0  0  0  0  0  0  0  0  0
    6.4437   -3.7007   -0.3930 C   0  0  0  0  0  0  0  0  0  0  0  0
   -8.7767   -2.3840    1.5332 C   0  0  0  0  0  0  0  0  0  0  0  0
   -7.9179   -3.0674    0.6981 C   0  0  0  0  0  0  0  0  0  0  0  0
    2.5639    4.0754    0.1161 C   0  0  0  0  0  0  0  0  0  0  0  0
   -4.4501    2.6584   -1.0848 H   0  0  0  0  0  0  0  0  0  0  0  0
   -2.5299   -1.1654   -0.4878 H   0  0  0  0  0  0  0  0  0  0  0  0
   -2.3022    3.7854   -0.7560 H   0  0  0  0  0  0  0  0  0  0  0  0
   -0.4181   -0.0768   -0.1641 H   0  0  0  0  0  0  0  0  0  0  0  0
   -5.9875    0.7159    0.9882 H   0  0  0  0  0  0  0  0  0  0  0  0
    0.0163    3.6157   -0.3163 H   0  0  0  0  0  0  0  0  0  0  0  0
    1.2314    0.9719    0.0975 H   0  0  0  0  0  0  0  0  0  0  0  0
    7.6086   -0.5791    0.2086 H   0  0  0  0  0  0  0  0  0  0  0  0
    3.5302   -2.0340    0.0971 H   0  0  0  0  0  0  0  0  0  0  0  0
    6.7106    0.9687    1.7307 H   0  0  0  0  0  0  0  0  0  0  0  0
    8.4162   -2.8184   -0.2938 H   0  0  0  0  0  0  0  0  0  0  0  0
    4.3586   -4.2762   -0.4248 H   0  0  0  0  0  0  0  0  0  0  0  0
   -9.7015   -2.7256    1.9756 H   0  0  0  0  0  0  0  0  0  0  0  0
   -8.0627   -4.0841    0.3585 H   0  0  0  0  0  0  0  0  0  0  0  0
  1 29  1  0  0  0  0
  2  5  2  0  0  0  0
  2  6  2  0  0  0  0
  2  7  1  0  0  0  0
  2 12  1  0  0  0  0
  3 21  1  0  0  0  0
  3 24  1  0  0  0  0
  4 22  1  0  0  0  0
  4 30  1  0  0  0  0
  7 22  1  0  0  0  0
  7 37  1  0  0  0  0
  8 13  1  0  0  0  0
  8 20  1  0  0  0  0
  8 38  1  0  0  0  0
  9 19  1  0  0  0  0
  9 21  2  0  0  0  0
 10 22  2  0  0  0  0
 10 31  1  0  0  0  0
 11 32  3  0  0  0  0
 12 14  2  0  0  0  0
 12 15  1  0  0  0  0
 13 16  2  0  0  0  0
 13 17  1  0  0  0  0
 14 16  1  0  0  0  0
 14 33  1  0  0  0  0
 15 17  2  0  0  0  0
 15 34  1  0  0  0  0
 16 35  1  0  0  0  0
 17 36  1  0  0  0  0
 18 19  1  0  0  0  0
 18 25  2  0  0  0  0
 18 26  1  0  0  0  0
 19 24  2  0  0  0  0
 20 23  2  0  0  0  0
 20 39  1  0  0  0  0
 21 23  1  0  0  0  0
 23 32  1  0  0  0  0
 24 42  1  0  0  0  0
 25 27  1  0  0  0  0
 25 40  1  0  0  0  0
 26 28  2  0  0  0  0
 26 41  1  0  0  0  0
 27 29  2  0  0  0  0
 27 43  1  0  0  0  0
 28 29  1  0  0  0  0
 28 44  1  0  0  0  0
 30 31  2  0  0  0  0
 30 45  1  0  0  0  0
 31 46  1  0  0  0  0
M  END
> <PUBCHEM_COMPOUND_CID>
1839046

> <PUBCHEM_CONFORMER_RMSD>
1

> <PUBCHEM_CONFORMER_DIVERSEORDER>
1
257
170
102
271
212
23
255
63
253
91
245
242
151
111
45
238
125
59
226
246
34
117
84
281
240
280
210
9
185
17
75
139
205
141
224
105
71
5
248
155
99
33
265
191
168
220
87
6
263
37
173
221
214
109
206
243
82
85
292
140
171
291
64
178
277
146
113
15
128
103
19
163
7
175
279
43
260
162
247
285
32
92
251
97
79
272
267
88
120
250
182
296
51
193
11
177
199
262
223
110
284
180
137
254
203
232
86
30
100
241
48
126
149
18
166
14
135
269
236
138
76
104
73
273
98
196
108
136
172
176
275
294
204
190
161
74
264
239
130
287
295
258
40
237
227
144
119
270
106
68
10
96
230
94
133
54
145
164
244
8
290
282
4
38
152
72
124
169
208
201
195
142
174
3
259
198
225
101
70
283
158
49
114
217
143
278
62
207
112
187
186
65
160
118
252
52
25
148
20
293
235
121
66
228
90
213
231
27
256
46
132
47
116
127
67
197
50
2
286
131
218
77
216
167
156
147
26
24
274
154
184
56
233
159
44
83
21
150
28
89
134
123
55
194
115
219
268
39
209
122
57
153
188
93
183
107
289
36
234
16
215
22
157
288
211
276
200
69
266
81
80
29
181
42
41
261
58
229
95
35
61
78
189
192
129
165
202
12
31
13
222
249
53
60
179

> <PUBCHEM_MMFF94_PARTIAL_CHARGES>
46
1 -0.18
10 -0.57
11 -0.56
12 -0.01
13 0.1
14 -0.15
15 -0.15
16 -0.15
17 -0.15
18 0.05
19 0.17
2 1.45
20 -0.05
21 0.33
22 0.52
23 0.11
24 -0.11
25 -0.15
26 -0.15
27 -0.15
28 -0.15
29 0.18
3 -0.08
30 -0.11
31 0.08
32 0.49
33 0.15
34 0.15
35 0.15
36 0.15
37 0.42
38 0.4
39 0.15
4 -0.08
40 0.15
41 0.15
42 0.15
43 0.15
44 0.15
45 0.15
46 0.15
5 -0.65
6 -0.65
7 -0.7
8 -0.6
9 -0.57

> <PUBCHEM_EFFECTIVE_ROTOR_COUNT>
7

> <PUBCHEM_PHARMACOPHORE_FEATURES>
12
1 10 acceptor
1 11 acceptor
1 5 acceptor
1 6 acceptor
1 7 donor
1 8 cation
1 8 donor
1 9 acceptor
5 3 9 19 21 24 rings
5 4 10 22 30 31 rings
6 12 13 14 15 16 17 rings
6 18 25 26 27 28 29 rings

> <PUBCHEM_HEAVY_ATOM_COUNT>
32

> <PUBCHEM_ATOM_DEF_STEREO_COUNT>
0

> <PUBCHEM_ATOM_UDEF_STEREO_COUNT>
0

> <PUBCHEM_BOND_DEF_STEREO_COUNT>
1

> <PUBCHEM_BOND_UDEF_STEREO_COUNT>
0

> <PUBCHEM_ISOTOPIC_ATOM_COUNT>
0

> <PUBCHEM_COMPONENT_COUNT>
1

> <PUBCHEM_CACTVS_TAUTO_COUNT>
6

> <PUBCHEM_CONFORMER_ID>
001C0FC600000001

> <PUBCHEM_MMFF94_ENERGY>
64.689

> <PUBCHEM_FEATURE_SELFOVERLAP>
60.921

> <PUBCHEM_SHAPE_FINGERPRINT>
10075450 59 17773329941149001815
10258705 36 18335147492404731403
10319688 140 18337673118116348452
10740516 88 18114475556196925547
10838868 229 18339364067977983451
11408170 108 18337111281139867771
11409948 8 18342443848241344018
11411753 3 18263346053936128476
11621639 208 18044382853667501818
117089 54 18339927000709259446
11761917 87 18410019814681304803
11828532 37 18261116266420373650
11973864 118 17681824108799688098
12107183 9 18129103307746322313
12342043 65 18334008406509985109
12841400 136 18339355250162257070
13008946 62 16958183124574586772
13782708 43 18114175341792215205
13989917 61 18337953497464798914
14556957 393 13407059385154487399
15347591 1 18408326583912980277
15467298 65 17839449330467155159
15510800 12 18259987084614555106
16067689 302 18410295817379355414
16990366 60 18263072242072007282
16993089 31 18186521016941471239
19301679 30 18342462525461430705
19303781 99 18262784208295094070
19611394 137 18336272258155169263
20165401 70 18341613771737092175
21057603 238 17967812688242029879
21095086 4 18337676321655295526
21130935 74 18266745869470859435
21585482 310 18334859411340102686
21682296 61 18334295388261782393
229767 8 18338798901620944782
24771750 20 17826237577921906172
25269216 80 15285360622797264811
255183 451 18186526522430344140
2748736 6 9007050254099627734
3383291 50 18041275564976582235
3504750 166 18201717363027712269
3862424 121 18335712602694053814
3991529 202 18340218414630151257
4169191 19 8358258172550419439
4408954 64 16845023308141303416
4461854 278 17775283868312082038
46194498 28 17821720655342465020
57366028 249 8934991587254033015
636783 189 17752755841448238178
86090 222 17821727251820744970
9831232 110 18334293171357167893

> <PUBCHEM_SHAPE_MULTIPOLES>
635.32
27.98
6.34
1.29
31.15
0.85
0.13
36.43
7.57
-11.96
-0.33
2.29
0.08
5.2

> <PUBCHEM_SHAPE_SELFOVERLAP>
1337.466

> <PUBCHEM_SHAPE_VOLUME>
357.6

> <PUBCHEM_COORDINATE_TYPE>
2
5
10

$$$$
