3757934
  -OEChem-02101610503D

 32 34  0     1  0  0  0  0  0999 V2000
    4.7008    0.1764   -0.0954 Cl  0  0  0  0  0  0  0  0  0  0  0  0
   -3.1723    2.0706    0.8831 O   0  0  0  0  0  0  0  0  0  0  0  0
   -0.9769    2.6632    1.0412 O   0  0  0  0  0  0  0  0  0  0  0  0
   -0.2812    1.0672   -0.9874 N   0  0  0  0  0  0  0  0  0  0  0  0
   -2.1267   -0.3700   -0.1941 C   0  0  1  0  0  0  0  0  0  0  0  0
   -1.1439   -1.1262    0.7326 C   0  0  2  0  0  0  0  0  0  0  0  0
   -1.6752    1.0292   -0.5981 C   0  0  1  0  0  0  0  0  0  0  0  0
   -2.3583   -1.3044   -1.3963 C   0  0  0  0  0  0  0  0  0  0  0  0
    0.3103   -0.7600    0.5225 C   0  0  0  0  0  0  0  0  0  0  0  0
   -1.4477   -2.5531    0.3607 C   0  0  0  0  0  0  0  0  0  0  0  0
    0.6709    0.2995   -0.3313 C   0  0  0  0  0  0  0  0  0  0  0  0
   -2.1046   -2.6473   -0.7999 C   0  0  0  0  0  0  0  0  0  0  0  0
   -1.8678    2.0085    0.5204 C   0  0  0  0  0  0  0  0  0  0  0  0
    1.3139   -1.4753    1.2001 C   0  0  0  0  0  0  0  0  0  0  0  0
    2.0338    0.5742   -0.5310 C   0  0  0  0  0  0  0  0  0  0  0  0
    2.6606   -1.1762    1.0029 C   0  0  0  0  0  0  0  0  0  0  0  0
    3.0210   -0.1561    0.1305 C   0  0  0  0  0  0  0  0  0  0  0  0
    2.4433    1.6797   -1.4606 C   0  0  0  0  0  0  0  0  0  0  0  0
   -3.0924   -0.3095    0.3319 H   0  0  0  0  0  0  0  0  0  0  0  0
   -1.4106   -0.9309    1.7785 H   0  0  0  0  0  0  0  0  0  0  0  0
   -2.2732    1.3945   -1.4421 H   0  0  0  0  0  0  0  0  0  0  0  0
   -1.6668   -1.1202   -2.2251 H   0  0  0  0  0  0  0  0  0  0  0  0
   -3.3847   -1.2153   -1.7656 H   0  0  0  0  0  0  0  0  0  0  0  0
   -1.1522   -3.4061    0.9558 H   0  0  0  0  0  0  0  0  0  0  0  0
    0.0126    1.8418   -1.5687 H   0  0  0  0  0  0  0  0  0  0  0  0
   -2.3951   -3.5789   -1.2628 H   0  0  0  0  0  0  0  0  0  0  0  0
    1.0496   -2.2784    1.8839 H   0  0  0  0  0  0  0  0  0  0  0  0
    3.4136   -1.7519    1.5348 H   0  0  0  0  0  0  0  0  0  0  0  0
    1.9430    1.5651   -2.4293 H   0  0  0  0  0  0  0  0  0  0  0  0
    2.1701    2.6486   -1.0284 H   0  0  0  0  0  0  0  0  0  0  0  0
    3.5070    1.7227   -1.7007 H   0  0  0  0  0  0  0  0  0  0  0  0
   -3.3189    2.7053    1.6166 H   0  0  0  0  0  0  0  0  0  0  0  0
  1 17  1  0  0  0  0
  2 13  1  0  0  0  0
  2 32  1  0  0  0  0
  3 13  2  0  0  0  0
  4  7  1  0  0  0  0
  4 11  1  0  0  0  0
  4 25  1  0  0  0  0
  5  6  1  0  0  0  0
  5  7  1  0  0  0  0
  5  8  1  0  0  0  0
  5 19  1  0  0  0  0
  6  9  1  0  0  0  0
  6 10  1  0  0  0  0
  6 20  1  0  0  0  0
  7 13  1  0  0  0  0
  7 21  1  0  0  0  0
  8 12  1  0  0  0  0
  8 22  1  0  0  0  0
  8 23  1  0  0  0  0
  9 11  2  0  0  0  0
  9 14  1  0  0  0  0
 10 12  2  0  0  0  0
 10 24  1  0  0  0  0
 11 15  1  0  0  0  0
 12 26  1  0  0  0  0
 14 16  2  0  0  0  0
 14 27  1  0  0  0  0
 15 17  2  0  0  0  0
 15 18  1  0  0  0  0
 16 17  1  0  0  0  0
 16 28  1  0  0  0  0
 18 29  1  0  0  0  0
 18 30  1  0  0  0  0
 18 31  1  0  0  0  0
M  END
> <PUBCHEM_COMPOUND_CID>
3757934

> <PUBCHEM_CONFORMER_RMSD>
0.6

> <PUBCHEM_CONFORMER_DIVERSEORDER>
1
5
2
3
4

> <PUBCHEM_MMFF94_PARTIAL_CHARGES>
23
1 -0.18
10 -0.29
11 0.1
12 -0.29
13 0.66
14 -0.15
15 -0.14
16 -0.15
17 0.18
18 0.14
2 -0.65
24 0.15
25 0.4
26 0.15
27 0.15
28 0.15
3 -0.57
32 0.5
4 -0.87
6 0.28
7 0.43
8 0.14
9 -0.14

> <PUBCHEM_EFFECTIVE_ROTOR_COUNT>
1.6

> <PUBCHEM_PHARMACOPHORE_FEATURES>
8
1 2 acceptor
1 3 acceptor
1 4 cation
1 4 donor
3 2 3 13 anion
5 5 6 8 10 12 rings
6 4 5 6 7 9 11 rings
6 9 11 14 15 16 17 rings

> <PUBCHEM_HEAVY_ATOM_COUNT>
18

> <PUBCHEM_ATOM_DEF_STEREO_COUNT>
0

> <PUBCHEM_ATOM_UDEF_STEREO_COUNT>
3

> <PUBCHEM_BOND_DEF_STEREO_COUNT>
0

> <PUBCHEM_BOND_UDEF_STEREO_COUNT>
0

> <PUBCHEM_ISOTOPIC_ATOM_COUNT>
0

> <PUBCHEM_COMPONENT_COUNT>
1

> <PUBCHEM_CACTVS_TAUTO_COUNT>
1

> <PUBCHEM_CONFORMER_ID>
0039576E00000001

> <PUBCHEM_MMFF94_ENERGY>
55.6915

> <PUBCHEM_FEATURE_SELFOVERLAP>
40.874

> <PUBCHEM_SHAPE_FINGERPRINT>
12173636 292 18199177391396896960
12202030 40 16773250568639313510
12491281 212 18335703802042118418
13027679 85 18120654888357804939
13538477 17 18410854339163069384
14617773 55 18336273451954630140
14787075 74 17688860256976446856
15001771 113 18263356039744686095
15279307 12 18334861563150171618
15309172 13 18046064861005526104
15775835 57 18261115106361932960
15906896 17 18342461417907968199
16752209 62 18341038654140606839
16945 1 18411420643506989418
19868273 325 18270960266552187271
200 152 18263915717165396534
20510252 161 18271806791763570809
20525323 117 18410853274222098642
21041028 32 18119825852306453739
21197605 99 17321820860265315653
21501502 16 18262243325883424948
21524375 3 18195813968511664489
22112679 90 18127422361004963179
23236772 104 18333448720562104729
2334 1 17897452915580841212
23402539 116 18201430394286579231
23419403 2 16317442594236902754
23557571 272 18060702822963167192
23558518 356 18117292556141434860
23559900 14 18265325304511079380
2748010 2 15233295842848752674
353137 74 18114454677642915426
427121 178 17271478736954890857
430814 3 18051973623935262105
5262128 65 18265914616672648630
6992083 37 18046051671424847202
7364860 26 17333079236335876151
7832392 63 18335987467652492840
81228 2 18343018921679113603
90525 40 18411139099890105351

> <PUBCHEM_SHAPE_MULTIPOLES>
355.58
5.52
2.8
1.25
5.31
0.38
-0.13
-0.05
-0.54
-2.33
0.47
-0.14
0.11
-1.53

> <PUBCHEM_SHAPE_SELFOVERLAP>
772.011

> <PUBCHEM_SHAPE_VOLUME>
194.8

> <PUBCHEM_COORDINATE_TYPE>
2
5
10

$$$$
