675605
  -OEChem-02101610503D

 36 37  0     0  0  0  0  0  0999 V2000
   -1.9975   -1.8713    0.0901 S   0  0  0  0  0  0  0  0  0  0  0  0
    0.7335   -2.2842    0.0918 O   0  0  0  0  0  0  0  0  0  0  0  0
   -2.1198    2.7755    0.9308 O   0  0  0  0  0  0  0  0  0  0  0  0
   -0.0743   -0.0836   -0.0082 N   0  0  0  0  0  0  0  0  0  0  0  0
   -2.1504    2.6668   -1.3596 N   0  0  0  0  0  0  0  0  0  0  0  0
   -3.7402    0.0149    0.0119 C   0  0  0  0  0  0  0  0  0  0  0  0
   -2.4663    0.6519   -0.0268 C   0  0  0  0  0  0  0  0  0  0  0  0
   -1.4793   -0.2632    0.0103 C   0  0  0  0  0  0  0  0  0  0  0  0
   -3.6308   -1.3569    0.0762 C   0  0  0  0  0  0  0  0  0  0  0  0
   -5.0344    0.7410   -0.0148 C   0  0  0  0  0  0  0  0  0  0  0  0
   -4.7050   -2.3738    0.1305 C   0  0  0  0  0  0  0  0  0  0  0  0
    2.2981   -0.5640    0.0261 C   0  0  0  0  0  0  0  0  0  0  0  0
    0.9309   -1.0598    0.0317 C   0  0  0  0  0  0  0  0  0  0  0  0
   -2.2444    2.0749   -0.0969 C   0  0  0  0  0  0  0  0  0  0  0  0
    3.3248   -1.3551   -0.4889 C   0  0  0  0  0  0  0  0  0  0  0  0
    2.5823    0.7031    0.5356 C   0  0  0  0  0  0  0  0  0  0  0  0
    4.9205    0.3878    0.0149 C   0  0  0  0  0  0  0  0  0  0  0  0
    4.6360   -0.8793   -0.4944 C   0  0  0  0  0  0  0  0  0  0  0  0
    3.8935    1.1790    0.5301 C   0  0  0  0  0  0  0  0  0  0  0  0
    6.3227    0.8962    0.0097 C   0  0  0  0  0  0  0  0  0  0  0  0
   -4.9524    1.7282    0.4514 H   0  0  0  0  0  0  0  0  0  0  0  0
   -5.3687    0.8783   -1.0483 H   0  0  0  0  0  0  0  0  0  0  0  0
   -5.8144    0.1967    0.5277 H   0  0  0  0  0  0  0  0  0  0  0  0
    0.1942    0.8922   -0.0974 H   0  0  0  0  0  0  0  0  0  0  0  0
   -5.4880   -2.1483   -0.6015 H   0  0  0  0  0  0  0  0  0  0  0  0
   -4.3417   -3.3839   -0.0862 H   0  0  0  0  0  0  0  0  0  0  0  0
   -5.1632   -2.3880    1.1250 H   0  0  0  0  0  0  0  0  0  0  0  0
    3.1240   -2.3429   -0.8957 H   0  0  0  0  0  0  0  0  0  0  0  0
    1.8233    1.3397    0.9806 H   0  0  0  0  0  0  0  0  0  0  0  0
    5.4270   -1.5039   -0.9010 H   0  0  0  0  0  0  0  0  0  0  0  0
    4.1040    2.1652    0.9356 H   0  0  0  0  0  0  0  0  0  0  0  0
    6.5007    1.5728    0.8524 H   0  0  0  0  0  0  0  0  0  0  0  0
    7.0413    0.0746    0.1016 H   0  0  0  0  0  0  0  0  0  0  0  0
    6.5232    1.4352   -0.9216 H   0  0  0  0  0  0  0  0  0  0  0  0
   -2.2399    2.1271   -2.2146 H   0  0  0  0  0  0  0  0  0  0  0  0
   -1.9886    3.6635   -1.4575 H   0  0  0  0  0  0  0  0  0  0  0  0
  1  8  1  0  0  0  0
  1  9  1  0  0  0  0
  2 13  2  0  0  0  0
  3 14  2  0  0  0  0
  4  8  1  0  0  0  0
  4 13  1  0  0  0  0
  4 24  1  0  0  0  0
  5 14  1  0  0  0  0
  5 35  1  0  0  0  0
  5 36  1  0  0  0  0
  6  7  1  0  0  0  0
  6  9  2  0  0  0  0
  6 10  1  0  0  0  0
  7  8  2  0  0  0  0
  7 14  1  0  0  0  0
  9 11  1  0  0  0  0
 10 21  1  0  0  0  0
 10 22  1  0  0  0  0
 10 23  1  0  0  0  0
 11 25  1  0  0  0  0
 11 26  1  0  0  0  0
 11 27  1  0  0  0  0
 12 13  1  0  0  0  0
 12 15  2  0  0  0  0
 12 16  1  0  0  0  0
 15 18  1  0  0  0  0
 15 28  1  0  0  0  0
 16 19  2  0  0  0  0
 16 29  1  0  0  0  0
 17 18  2  0  0  0  0
 17 19  1  0  0  0  0
 17 20  1  0  0  0  0
 18 30  1  0  0  0  0
 19 31  1  0  0  0  0
 20 32  1  0  0  0  0
 20 33  1  0  0  0  0
 20 34  1  0  0  0  0
M  END
> <PUBCHEM_COMPOUND_CID>
675605

> <PUBCHEM_CONFORMER_RMSD>
0.6

> <PUBCHEM_CONFORMER_DIVERSEORDER>
2
13
7
6
14
5
15
12
3
9
16
1
8
10
11
4

> <PUBCHEM_MMFF94_PARTIAL_CHARGES>
27
1 -0.08
10 0.18
11 0.18
12 0.09
13 0.54
14 0.72
15 -0.15
16 -0.15
17 -0.14
18 -0.15
19 -0.15
2 -0.57
20 0.14
24 0.37
28 0.15
29 0.15
3 -0.57
30 0.15
31 0.15
35 0.37
36 0.37
4 -0.49
5 -0.8
6 -0.18
7 -0.09
8 0.1
9 -0.14

> <PUBCHEM_EFFECTIVE_ROTOR_COUNT>
4

> <PUBCHEM_PHARMACOPHORE_FEATURES>
6
1 2 acceptor
1 3 acceptor
1 4 donor
1 5 donor
5 1 6 7 8 9 rings
6 12 15 16 17 18 19 rings

> <PUBCHEM_HEAVY_ATOM_COUNT>
20

> <PUBCHEM_ATOM_DEF_STEREO_COUNT>
0

> <PUBCHEM_ATOM_UDEF_STEREO_COUNT>
0

> <PUBCHEM_BOND_DEF_STEREO_COUNT>
0

> <PUBCHEM_BOND_UDEF_STEREO_COUNT>
0

> <PUBCHEM_ISOTOPIC_ATOM_COUNT>
0

> <PUBCHEM_COMPONENT_COUNT>
1

> <PUBCHEM_CACTVS_TAUTO_COUNT>
7

> <PUBCHEM_CONFORMER_ID>
000A4F1500000002

> <PUBCHEM_MMFF94_ENERGY>
62.1564

> <PUBCHEM_FEATURE_SELFOVERLAP>
30.446

> <PUBCHEM_SHAPE_FINGERPRINT>
10 15 18268137838370292136
10366900 7 18343011212001996147
10498660 4 18335977610359767669
10608611 8 18340204103029097218
10646746 165 18411419471513505262
10670039 82 18261690228975403980
11578080 2 14259976904892986769
11595378 159 17676475125856614408
12107183 9 17686613550978047234
12236239 1 17676202494528620538
12390115 104 18056775234396178281
12403259 226 18412822503810725416
12403259 415 18059850714479117304
12596602 18 16950564432574453800
12916748 109 18410578401032115130
13081056 2 18341895190820464992
13402501 40 18342737459471461776
14341114 176 18410580556694078620
14790565 3 17836650717546066425
15196674 1 18411982468184338410
15961568 22 18187931741836446420
17349148 13 17312827086486535902
18186145 218 18202291260441281658
200 152 17561082518503253235
20510252 161 18412545409774535851
20645477 56 18411136930825742442
20645477 70 17561091250905171502
21267235 1 18337678636853625659
21315764 268 18337100268289495008
21623110 236 18339368573119245009
21652331 79 18410011022334369860
221357 26 18131632262157567112
22182937 141 18200038313497107201
2297311 6 18341622545874580390
23402539 116 18335978748621300103
23402655 69 18131351912646819870
23557571 272 18340493351865153671
23559900 14 18413102866264201928
23845131 108 17690859869596788569
245318 6 16954803179023558220
283562 15 18408039607208965011
3268164 11 18333723615780786919
34934 24 18334851689627077915
350125 39 18411420639581521144
351380 180 18410292532050575154
3545911 37 18411700980501859532
4028521 119 18335133159807492605
4214541 1 18411419475576370384
5104073 3 18411700963232690754
5281201 14 18201727215344806358
59755656 215 18342179947163006014
77779 3 18413390921384186350
9709674 26 18412551998123083550

> <PUBCHEM_SHAPE_MULTIPOLES>
393.74
12.34
2.61
0.77
10.13
0.75
-0.07
0.34
-0.09
-2.73
-0.1
-0.04
0.27
0.66

> <PUBCHEM_SHAPE_SELFOVERLAP>
830.871

> <PUBCHEM_SHAPE_VOLUME>
224.1

> <PUBCHEM_COORDINATE_TYPE>
2
5
10

$$$$
