1719891
  -OEChem-02101610503D

 34 36  0     0  0  0  0  0  0999 V2000
    6.6684   -2.7926   -0.0180 I   0  0  0  0  0  0  0  0  0  0  0  0
   -0.1333   -0.6390   -0.1464 O   0  0  0  0  0  0  0  0  0  0  0  0
    0.0980    4.0807    0.1559 O   0  0  0  0  0  0  0  0  0  0  0  0
   -4.5420   -1.6291    2.0162 O   0  0  0  0  0  0  0  0  0  0  0  0
   -5.3527   -2.5296   -0.4853 O   0  0  0  0  0  0  0  0  0  0  0  0
    1.6368    0.9354    0.0193 N   0  0  0  0  0  0  0  0  0  0  0  0
    1.6743    2.3355    0.1076 N   0  0  0  0  0  0  0  0  0  0  0  0
   -0.4838    1.7464   -0.0123 C   0  0  0  0  0  0  0  0  0  0  0  0
    0.3077    0.4924   -0.0595 C   0  0  0  0  0  0  0  0  0  0  0  0
    2.7503    0.1103    0.0111 C   0  0  0  0  0  0  0  0  0  0  0  0
    0.4151    2.9084    0.0949 C   0  0  0  0  0  0  0  0  0  0  0  0
   -1.8302    1.8116   -0.0634 C   0  0  0  0  0  0  0  0  0  0  0  0
   -2.7444    0.6853   -0.1691 C   0  0  0  0  0  0  0  0  0  0  0  0
    2.6005   -1.2780   -0.0807 C   0  0  0  0  0  0  0  0  0  0  0  0
    4.0358    0.6574    0.0945 C   0  0  0  0  0  0  0  0  0  0  0  0
   -3.2137    0.0569    0.9844 C   0  0  0  0  0  0  0  0  0  0  0  0
   -3.1510    0.2329   -1.4244 C   0  0  0  0  0  0  0  0  0  0  0  0
    3.7211   -2.1084   -0.0889 C   0  0  0  0  0  0  0  0  0  0  0  0
    5.1566   -0.1729    0.0862 C   0  0  0  0  0  0  0  0  0  0  0  0
   -4.0897   -1.0239    0.8825 C   0  0  0  0  0  0  0  0  0  0  0  0
   -4.0268   -0.8477   -1.5263 C   0  0  0  0  0  0  0  0  0  0  0  0
   -4.4964   -1.4761   -0.3729 C   0  0  0  0  0  0  0  0  0  0  0  0
    4.9994   -1.5559   -0.0056 C   0  0  0  0  0  0  0  0  0  0  0  0
    2.5484    2.8396    0.1730 H   0  0  0  0  0  0  0  0  0  0  0  0
   -2.3170    2.7838   -0.0245 H   0  0  0  0  0  0  0  0  0  0  0  0
    1.6543   -1.7942   -0.1491 H   0  0  0  0  0  0  0  0  0  0  0  0
    4.2100    1.7260    0.1675 H   0  0  0  0  0  0  0  0  0  0  0  0
   -2.9020    0.4028    1.9677 H   0  0  0  0  0  0  0  0  0  0  0  0
   -2.7936    0.7122   -2.3327 H   0  0  0  0  0  0  0  0  0  0  0  0
    3.5778   -3.1837   -0.1611 H   0  0  0  0  0  0  0  0  0  0  0  0
    6.1438    0.2779    0.1521 H   0  0  0  0  0  0  0  0  0  0  0  0
   -4.3356   -1.1898   -2.5105 H   0  0  0  0  0  0  0  0  0  0  0  0
   -5.1365   -2.3550    1.7589 H   0  0  0  0  0  0  0  0  0  0  0  0
   -5.5221   -2.7009   -1.4276 H   0  0  0  0  0  0  0  0  0  0  0  0
  1 23  1  0  0  0  0
  2  9  2  0  0  0  0
  3 11  2  0  0  0  0
  4 20  1  0  0  0  0
  4 33  1  0  0  0  0
  5 22  1  0  0  0  0
  5 34  1  0  0  0  0
  6  7  1  0  0  0  0
  6  9  1  0  0  0  0
  6 10  1  0  0  0  0
  7 11  1  0  0  0  0
  7 24  1  0  0  0  0
  8  9  1  0  0  0  0
  8 11  1  0  0  0  0
  8 12  2  0  0  0  0
 10 14  2  0  0  0  0
 10 15  1  0  0  0  0
 12 13  1  0  0  0  0
 12 25  1  0  0  0  0
 13 16  2  0  0  0  0
 13 17  1  0  0  0  0
 14 18  1  0  0  0  0
 14 26  1  0  0  0  0
 15 19  2  0  0  0  0
 15 27  1  0  0  0  0
 16 20  1  0  0  0  0
 16 28  1  0  0  0  0
 17 21  2  0  0  0  0
 17 29  1  0  0  0  0
 18 23  2  0  0  0  0
 18 30  1  0  0  0  0
 19 23  1  0  0  0  0
 19 31  1  0  0  0  0
 20 22  2  0  0  0  0
 21 22  1  0  0  0  0
 21 32  1  0  0  0  0
M  END
> <PUBCHEM_COMPOUND_CID>
1719891

> <PUBCHEM_CONFORMER_RMSD>
0.6

> <PUBCHEM_CONFORMER_DIVERSEORDER>
1
4
2
3

> <PUBCHEM_MMFF94_PARTIAL_CHARGES>
34
1 -0.08
10 0.12
11 0.62
12 -0.18
13 0.03
14 -0.15
15 -0.15
16 -0.15
17 -0.15
18 -0.15
19 -0.15
2 -0.57
20 0.08
21 -0.15
22 0.08
23 0.08
24 0.37
25 0.15
26 0.15
27 0.15
28 0.15
29 0.15
3 -0.57
30 0.15
31 0.15
32 0.15
33 0.45
34 0.45
4 -0.53
5 -0.53
6 -0.18
7 -0.43
8 0.03
9 0.62

> <PUBCHEM_EFFECTIVE_ROTOR_COUNT>
2.4

> <PUBCHEM_PHARMACOPHORE_FEATURES>
10
1 1 hydrophobe
1 2 acceptor
1 3 acceptor
1 4 donor
1 5 donor
1 7 donor
1 8 anion
5 6 7 8 9 11 rings
6 10 14 15 18 19 23 rings
6 13 16 17 20 21 22 rings

> <PUBCHEM_HEAVY_ATOM_COUNT>
23

> <PUBCHEM_ATOM_DEF_STEREO_COUNT>
0

> <PUBCHEM_ATOM_UDEF_STEREO_COUNT>
0

> <PUBCHEM_BOND_DEF_STEREO_COUNT>
1

> <PUBCHEM_BOND_UDEF_STEREO_COUNT>
0

> <PUBCHEM_ISOTOPIC_ATOM_COUNT>
0

> <PUBCHEM_COMPONENT_COUNT>
1

> <PUBCHEM_CACTVS_TAUTO_COUNT>
20

> <PUBCHEM_CONFORMER_ID>
001A3E5300000001

> <PUBCHEM_MMFF94_ENERGY>
73.168

> <PUBCHEM_FEATURE_SELFOVERLAP>
50.75

> <PUBCHEM_SHAPE_FINGERPRINT>
10 15 11455880386460381735
10622 236 17557119994972933943
11045515 52 18187081711467584220
11796584 16 17603578647222124427
11809386 21 18045778993068750914
12107183 9 18270695190668234601
12166972 35 17822015302735322334
12363563 72 18409453578560631565
12403259 118 13182728260515461283
12422481 6 17274827883411399902
12553582 1 18341901804706104316
12596602 18 17132116883079095722
12760667 363 18409449146418483626
12788726 201 17977371751269442057
13103583 49 17846791710424114035
13140716 1 17549820431200919241
13533116 47 18126004012996803467
13544653 18 18408887330130479300
13583140 156 14692278479147363530
13862211 1 18411416207307159974
13955234 65 17910392019861782185
14211702 104 18120092785120616082
14767858 380 18262813968524298076
14787075 74 18261115201183379920
15196674 1 18411698755972609316
15352361 1 18410854360632481774
17492 89 18268425918547916871
17780758 139 17775003427614633467
17870717 6 17312820481386055763
1813 80 18201170913352380661
18927931 339 18269557143871127158
193927 3 18333737917963970266
19427546 20 18191309269700013004
20028762 73 18131067181605774127
20281389 69 10231743492954580094
20645477 70 18118953926906271565
21033650 10 16588580886231504228
21267235 1 18411986828203949902
221490 88 18335701688754951029
22393880 68 17895461553593104575
22950370 63 18412549803510183692
23402539 116 18338514128177487214
23522609 53 18052854444930775288
23559900 14 18337661023218962537
2748736 6 8574423198027379350
3004659 81 18113614556644469590
314194 84 18339365274277763218
329604 57 18261115175350298726
335352 9 18339077086979767613
3421961 26 18341046436115399617
3737641 26 17916315939636121198
46194498 28 17459465735515956525
5104073 3 18271520876471236560
5309563 4 18411698781283737014
5486654 36 18336275565479616265
6431902 208 18337389336393961990
6669772 16 17834686263855643364
7970288 3 18412259549462889558

> <PUBCHEM_SHAPE_MULTIPOLES>
451.83
13.83
3.46
1.04
11.62
2.17
0.09
-15.03
0.13
-0.14
0.19
-1.62
-0.48
0.32

> <PUBCHEM_SHAPE_SELFOVERLAP>
972.183

> <PUBCHEM_SHAPE_VOLUME>
253.2

> <PUBCHEM_COORDINATE_TYPE>
2
5
10

$$$$
