2263150
  -OEChem-02101610503D

 39 41  0     0  0  0  0  0  0999 V2000
   -0.8592   -1.2595    0.4319 S   0  0  0  0  0  0  0  0  0  0  0  0
    1.6087   -2.7988    1.1013 S   0  0  0  0  0  0  0  0  0  0  0  0
    0.8412    2.0358   -0.4321 O   0  0  0  0  0  0  0  0  0  0  0  0
   -5.8739   -0.7721   -2.0398 O   0  0  0  0  0  0  0  0  0  0  0  0
   -7.1676   -0.5959    0.4125 O   0  0  0  0  0  0  0  0  0  0  0  0
    1.4710   -0.1610    0.1874 N   0  0  0  0  0  0  0  0  0  0  0  0
    2.8836    0.0750    0.0912 C   0  0  0  0  0  0  0  0  0  0  0  0
    5.1076   -0.7360   -0.3594 C   0  0  0  0  0  0  0  0  0  0  0  0
    5.6221    0.5332   -0.0943 C   0  0  0  0  0  0  0  0  0  0  0  0
    3.7350   -0.9656   -0.2665 C   0  0  0  0  0  0  0  0  0  0  0  0
    3.3910    1.3430    0.3567 C   0  0  0  0  0  0  0  0  0  0  0  0
    0.5805    0.8906   -0.0836 C   0  0  0  0  0  0  0  0  0  0  0  0
    4.7636    1.5727    0.2637 C   0  0  0  0  0  0  0  0  0  0  0  0
   -0.8136    0.4078    0.0535 C   0  0  0  0  0  0  0  0  0  0  0  0
    0.9000   -1.3889    0.5382 C   0  0  0  0  0  0  0  0  0  0  0  0
    6.0073   -1.8642   -0.7443 C   0  0  0  0  0  0  0  0  0  0  0  0
   -1.8802    1.1915   -0.1137 C   0  0  0  0  0  0  0  0  0  0  0  0
    7.0879    0.8032   -0.1876 C   0  0  0  0  0  0  0  0  0  0  0  0
   -3.2521    0.7274    0.0195 C   0  0  0  0  0  0  0  0  0  0  0  0
   -3.9177    0.1927   -1.0835 C   0  0  0  0  0  0  0  0  0  0  0  0
   -3.9018    0.8162    1.2506 C   0  0  0  0  0  0  0  0  0  0  0  0
   -5.2331   -0.2533   -0.9556 C   0  0  0  0  0  0  0  0  0  0  0  0
   -5.2173    0.3704    1.3785 C   0  0  0  0  0  0  0  0  0  0  0  0
   -5.8829   -0.1643    0.2755 C   0  0  0  0  0  0  0  0  0  0  0  0
    3.3727   -1.9255   -0.6117 H   0  0  0  0  0  0  0  0  0  0  0  0
    2.7821    2.1681    0.7089 H   0  0  0  0  0  0  0  0  0  0  0  0
    5.1501    2.5633    0.4889 H   0  0  0  0  0  0  0  0  0  0  0  0
    6.7544   -2.0458    0.0351 H   0  0  0  0  0  0  0  0  0  0  0  0
    5.4540   -2.8000   -0.8806 H   0  0  0  0  0  0  0  0  0  0  0  0
    6.5137   -1.6462   -1.6902 H   0  0  0  0  0  0  0  0  0  0  0  0
   -1.7685    2.2449   -0.3561 H   0  0  0  0  0  0  0  0  0  0  0  0
    7.6385    0.1947    0.5370 H   0  0  0  0  0  0  0  0  0  0  0  0
    7.4565    0.5911   -1.1964 H   0  0  0  0  0  0  0  0  0  0  0  0
    7.3216    1.8521    0.0263 H   0  0  0  0  0  0  0  0  0  0  0  0
   -3.4197    0.1205   -2.0481 H   0  0  0  0  0  0  0  0  0  0  0  0
   -3.3967    1.2309    2.1196 H   0  0  0  0  0  0  0  0  0  0  0  0
   -5.7118    0.4456    2.3433 H   0  0  0  0  0  0  0  0  0  0  0  0
   -6.7729   -1.0285   -1.7703 H   0  0  0  0  0  0  0  0  0  0  0  0
   -7.4523   -0.4562    1.3320 H   0  0  0  0  0  0  0  0  0  0  0  0
  1 14  1  0  0  0  0
  1 15  1  0  0  0  0
  2 15  2  0  0  0  0
  3 12  2  0  0  0  0
  4 22  1  0  0  0  0
  4 38  1  0  0  0  0
  5 24  1  0  0  0  0
  5 39  1  0  0  0  0
  6  7  1  0  0  0  0
  6 12  1  0  0  0  0
  6 15  1  0  0  0  0
  7 10  2  0  0  0  0
  7 11  1  0  0  0  0
  8  9  2  0  0  0  0
  8 10  1  0  0  0  0
  8 16  1  0  0  0  0
  9 13  1  0  0  0  0
  9 18  1  0  0  0  0
 10 25  1  0  0  0  0
 11 13  2  0  0  0  0
 11 26  1  0  0  0  0
 12 14  1  0  0  0  0
 13 27  1  0  0  0  0
 14 17  2  0  0  0  0
 16 28  1  0  0  0  0
 16 29  1  0  0  0  0
 16 30  1  0  0  0  0
 17 19  1  0  0  0  0
 17 31  1  0  0  0  0
 18 32  1  0  0  0  0
 18 33  1  0  0  0  0
 18 34  1  0  0  0  0
 19 20  2  0  0  0  0
 19 21  1  0  0  0  0
 20 22  1  0  0  0  0
 20 35  1  0  0  0  0
 21 23  2  0  0  0  0
 21 36  1  0  0  0  0
 22 24  2  0  0  0  0
 23 24  1  0  0  0  0
 23 37  1  0  0  0  0
M  END
> <PUBCHEM_COMPOUND_CID>
2263150

> <PUBCHEM_CONFORMER_RMSD>
0.6

> <PUBCHEM_CONFORMER_DIVERSEORDER>
5
16
32
13
8
34
33
6
14
15
7
24
30
1
23
29
4
27
31
3
28
2
22
9
18
10
19
25
17
11
21
12
20
26

> <PUBCHEM_MMFF94_PARTIAL_CHARGES>
33
1 -0.24
10 -0.15
11 -0.15
12 0.62
13 -0.15
14 0.12
15 0.58
16 0.14
17 -0.18
18 0.14
19 0.03
2 -0.38
20 -0.15
21 -0.15
22 0.08
23 -0.15
24 0.08
25 0.15
26 0.15
27 0.15
3 -0.57
31 0.15
35 0.15
36 0.15
37 0.15
38 0.45
39 0.45
4 -0.53
5 -0.53
6 -0.24
7 0.12
8 -0.14
9 -0.14

> <PUBCHEM_EFFECTIVE_ROTOR_COUNT>
2.4

> <PUBCHEM_PHARMACOPHORE_FEATURES>
7
1 2 acceptor
1 3 acceptor
1 4 donor
1 5 donor
5 1 6 12 14 15 rings
6 19 20 21 22 23 24 rings
6 7 8 9 10 11 13 rings

> <PUBCHEM_HEAVY_ATOM_COUNT>
24

> <PUBCHEM_ATOM_DEF_STEREO_COUNT>
0

> <PUBCHEM_ATOM_UDEF_STEREO_COUNT>
0

> <PUBCHEM_BOND_DEF_STEREO_COUNT>
1

> <PUBCHEM_BOND_UDEF_STEREO_COUNT>
0

> <PUBCHEM_ISOTOPIC_ATOM_COUNT>
0

> <PUBCHEM_COMPONENT_COUNT>
1

> <PUBCHEM_CACTVS_TAUTO_COUNT>
10

> <PUBCHEM_CONFORMER_ID>
0022886E00000005

> <PUBCHEM_MMFF94_ENERGY>
84.4794

> <PUBCHEM_FEATURE_SELFOVERLAP>
35.526

> <PUBCHEM_SHAPE_FINGERPRINT>
10 15 17458345286503048800
10299344 5 17704073996999871703
10595046 47 17775004591640538496
11315181 36 17489869358649991209
11421498 54 17489312923333919859
11963148 33 17822008748378735779
11991303 11 17458637751705686034
12107183 9 17266957437187070683
12166972 35 18273498987388242352
12236239 1 18060703875093160633
12516196 113 17989205949738282904
12596602 18 17989209230940030729
12730499 353 18261114058690833682
12916748 109 18334016073537707024
13533116 47 18131352978099337730
1361 2 18202568358957529742
13631057 29 18268424814957924323
13668630 136 18187368748869417835
13862211 1 18335137549459423346
1420 363 18187368726830065865
14251764 18 18273494581347206496
14849402 71 17988364891767664696
14856354 85 16630809932952288069
15142383 8 13973968670740079866
15183329 4 17775566437808412014
15716309 27 18131352994857044759
15849732 13 17167865288080439286
17844677 252 18341337707891608172
18681886 176 17632285818013261587
19489759 90 15213018254672957125
20028762 73 18201434740841676654
21033648 29 18114728400198940941
21150785 3 17458068183211870748
21267235 1 18411989039468210702
21344244 181 18130518448479392638
21521239 73 18342449352960062910
21521721 280 18410859892967155784
220451 1 17418095416324621438
221357 26 18341894070029536864
22224240 67 18334857246866230000
23035841 295 17632858625117223583
23402539 116 17775284945889455577
23516275 137 17488489423701595895
23522609 53 17773622531294975616
23536379 177 17131836451805428008
23559900 14 18336543927393722856
23569914 152 17112382552205122239
23569943 247 18124321506123702386
335352 9 18408890647037124542
34797466 226 16558755645854847296
3545911 37 18260550034552093282
4073 2 18338237193087047986
4325135 7 18130788966545234861
5265222 85 15697429065808930900
53794403 172 18043818795638573252
5758199 1 18411985771066813584
59755656 215 17967814929181028442
7495541 125 16056592187989099403
9996256 80 18202283593349463422

> <PUBCHEM_SHAPE_MULTIPOLES>
479.02
17.93
1.93
1.12
4.66
0.86
-0.17
-0.02
-2.7
-2.29
0.34
1.62
0.22
-0.1

> <PUBCHEM_SHAPE_SELFOVERLAP>
1024.159

> <PUBCHEM_SHAPE_VOLUME>
268.1

> <PUBCHEM_COORDINATE_TYPE>
2
5
10

$$$$
