1121572
  -OEChem-02101610513D

 40 42  0     0  0  0  0  0  0999 V2000
    0.3210    2.8503   -0.6181 S   0  0  0  0  0  0  0  0  0  0  0  0
    4.9729   -0.7837   -0.6406 O   0  0  0  0  0  0  0  0  0  0  0  0
   -1.2997    1.6653    1.6326 O   0  0  0  0  0  0  0  0  0  0  0  0
   -4.2900   -2.4556    1.6096 O   0  0  0  0  0  0  0  0  0  0  0  0
   -6.3428   -1.7353   -0.1194 O   0  0  0  0  0  0  0  0  0  0  0  0
    0.1961    0.3295   -1.4206 N   0  0  0  0  0  0  0  0  0  0  0  0
    3.6621    2.5797    1.0802 N   0  0  0  0  0  0  0  0  0  0  0  0
    2.6520   -0.4603   -0.3441 C   0  0  0  0  0  0  0  0  0  0  0  0
    2.2133    0.8506   -0.1942 C   0  0  0  0  0  0  0  0  0  0  0  0
    0.9882    1.1940   -0.7460 C   0  0  0  0  0  0  0  0  0  0  0  0
    1.8641   -1.3769   -1.0315 C   0  0  0  0  0  0  0  0  0  0  0  0
    3.9165   -0.9119    0.1961 C   0  0  0  0  0  0  0  0  0  0  0  0
    0.6554   -0.9360   -1.5459 C   0  0  0  0  0  0  0  0  0  0  0  0
   -1.4614    2.5246   -0.6233 C   0  0  0  0  0  0  0  0  0  0  0  0
   -3.0601    0.7579    0.3758 C   0  0  0  0  0  0  0  0  0  0  0  0
   -1.9113    1.6337    0.5450 C   0  0  0  0  0  0  0  0  0  0  0  0
    4.2923   -1.4541    1.3937 C   0  0  0  0  0  0  0  0  0  0  0  0
   -0.2164   -1.8920   -2.2893 C   0  0  0  0  0  0  0  0  0  0  0  0
   -3.1307   -0.4439    1.0803 C   0  0  0  0  0  0  0  0  0  0  0  0
   -4.0903    1.1192   -0.4924 C   0  0  0  0  0  0  0  0  0  0  0  0
   -4.2318   -1.2845    0.9167 C   0  0  0  0  0  0  0  0  0  0  0  0
    5.6859   -1.6795    1.2935 C   0  0  0  0  0  0  0  0  0  0  0  0
   -5.1913    0.2787   -0.6561 C   0  0  0  0  0  0  0  0  0  0  0  0
   -5.2622   -0.9230    0.0486 C   0  0  0  0  0  0  0  0  0  0  0  0
    6.0521   -1.2552    0.0375 C   0  0  0  0  0  0  0  0  0  0  0  0
    3.0161    1.8086    0.5119 C   0  0  0  0  0  0  0  0  0  0  0  0
    2.1804   -2.4074   -1.1650 H   0  0  0  0  0  0  0  0  0  0  0  0
   -1.9849    3.4818   -0.5328 H   0  0  0  0  0  0  0  0  0  0  0  0
   -1.7327    2.0751   -1.5829 H   0  0  0  0  0  0  0  0  0  0  0  0
    3.6529   -1.6648    2.2392 H   0  0  0  0  0  0  0  0  0  0  0  0
   -0.4981   -2.7305   -1.6444 H   0  0  0  0  0  0  0  0  0  0  0  0
   -1.1363   -1.4033   -2.6271 H   0  0  0  0  0  0  0  0  0  0  0  0
    0.3055   -2.2772   -3.1709 H   0  0  0  0  0  0  0  0  0  0  0  0
   -2.3312   -0.7396    1.7556 H   0  0  0  0  0  0  0  0  0  0  0  0
   -4.0704    2.0559   -1.0423 H   0  0  0  0  0  0  0  0  0  0  0  0
   -5.9887    0.5739   -1.3329 H   0  0  0  0  0  0  0  0  0  0  0  0
    6.3415   -2.0985    2.0431 H   0  0  0  0  0  0  0  0  0  0  0  0
    6.9903   -1.2232   -0.4970 H   0  0  0  0  0  0  0  0  0  0  0  0
   -5.1182   -2.9092    1.3749 H   0  0  0  0  0  0  0  0  0  0  0  0
   -6.9522   -1.3241   -0.7562 H   0  0  0  0  0  0  0  0  0  0  0  0
  1 10  1  0  0  0  0
  1 14  1  0  0  0  0
  2 12  1  0  0  0  0
  2 25  1  0  0  0  0
  3 16  2  0  0  0  0
  4 21  1  0  0  0  0
  4 39  1  0  0  0  0
  5 24  1  0  0  0  0
  5 40  1  0  0  0  0
  6 10  2  0  0  0  0
  6 13  1  0  0  0  0
  7 26  3  0  0  0  0
  8  9  2  0  0  0  0
  8 11  1  0  0  0  0
  8 12  1  0  0  0  0
  9 10  1  0  0  0  0
  9 26  1  0  0  0  0
 11 13  2  0  0  0  0
 11 27  1  0  0  0  0
 12 17  2  0  0  0  0
 13 18  1  0  0  0  0
 14 16  1  0  0  0  0
 14 28  1  0  0  0  0
 14 29  1  0  0  0  0
 15 16  1  0  0  0  0
 15 19  2  0  0  0  0
 15 20  1  0  0  0  0
 17 22  1  0  0  0  0
 17 30  1  0  0  0  0
 18 31  1  0  0  0  0
 18 32  1  0  0  0  0
 18 33  1  0  0  0  0
 19 21  1  0  0  0  0
 19 34  1  0  0  0  0
 20 23  2  0  0  0  0
 20 35  1  0  0  0  0
 21 24  2  0  0  0  0
 22 25  2  0  0  0  0
 22 37  1  0  0  0  0
 23 24  1  0  0  0  0
 23 36  1  0  0  0  0
 25 38  1  0  0  0  0
M  END
> <PUBCHEM_COMPOUND_CID>
1121572

> <PUBCHEM_CONFORMER_RMSD>
1

> <PUBCHEM_CONFORMER_DIVERSEORDER>
1
63
93
152
229
217
41
10
92
11
110
122
32
2
49
109
177
70
85
65
96
223
173
25
189
80
198
143
35
59
42
73
60
180
103
142
19
179
161
211
125
74
39
37
87
197
176
181
163
183
48
84
108
171
209
36
33
114
79
104
166
165
203
123
44
12
214
91
168
145
5
131
113
178
206
94
148
34
174
201
164
21
72
232
210
8
159
23
234
14
115
202
9
226
27
4
61
99
38
127
112
225
82
218
20
194
89
133
56
215
7
64
29
101
24
13
30
3
67
158
90
191
119
40
157
172
15
53
150
153
207
205
124
102
107
134
220
147
16
52
221
97
222
138
45
117
136
170
192
195
175
141
47
54
199
213
224
57
155
111
83
86
120
6
193
98
128
22
154
216
71
17
77
228
31
106
169
62
88
167
233
188
187
28
227
55
140
230
129
137
26
51
105
18
78
100
126
186
219
118
121
130
151
50
46
68
156
135
132
146
204
144
196
149
43
200
182
190
76
160
95
66
208
185
116
139
212
58
231
81
75
162
69
184

> <PUBCHEM_MMFF94_PARTIAL_CHARGES>
35
1 -0.33
10 0.41
11 -0.15
12 0.09
13 0.17
14 0.29
15 0.09
16 0.42
17 -0.15
18 0.14
19 -0.15
2 -0.28
20 -0.15
21 0.08
22 -0.15
23 -0.15
24 0.08
25 -0.01
26 0.48
27 0.15
3 -0.57
30 0.15
34 0.15
35 0.15
36 0.15
37 0.15
38 0.15
39 0.45
4 -0.53
40 0.45
5 -0.53
6 -0.62
7 -0.56
8 0.05
9 0.07

> <PUBCHEM_EFFECTIVE_ROTOR_COUNT>
5

> <PUBCHEM_PHARMACOPHORE_FEATURES>
9
1 2 acceptor
1 3 acceptor
1 4 donor
1 5 donor
1 6 acceptor
1 7 acceptor
5 2 12 17 22 25 rings
6 15 19 20 21 23 24 rings
6 6 8 9 10 11 13 rings

> <PUBCHEM_HEAVY_ATOM_COUNT>
26

> <PUBCHEM_ATOM_DEF_STEREO_COUNT>
0

> <PUBCHEM_ATOM_UDEF_STEREO_COUNT>
0

> <PUBCHEM_BOND_DEF_STEREO_COUNT>
0

> <PUBCHEM_BOND_UDEF_STEREO_COUNT>
0

> <PUBCHEM_ISOTOPIC_ATOM_COUNT>
0

> <PUBCHEM_COMPONENT_COUNT>
1

> <PUBCHEM_CACTVS_TAUTO_COUNT>
22

> <PUBCHEM_CONFORMER_ID>
00111D2400000001

> <PUBCHEM_MMFF94_ENERGY>
62.2369

> <PUBCHEM_FEATURE_SELFOVERLAP>
45.677

> <PUBCHEM_SHAPE_FINGERPRINT>
10 15 18200860830616369682
10076449 9 17560253431977508822
10674148 151 14056991689931318791
12166972 35 17530972414394283535
12363563 72 18261126170445607257
12422481 6 17988644081773579550
12596602 18 18334293154673235906
12633257 1 18268159677245205672
12930653 34 17130434479954076345
13140716 1 18200860881765547918
13583140 156 18190726566859174524
14178342 30 17843418296828162065
14955137 171 18130508523178294140
15163728 17 12894490248761301448
15183329 4 13695864809802307443
17349148 13 18343026601117620445
17492 89 17897173639785953723
17857418 61 18187364294545103442
20028762 73 18131629006224821511
20261772 1 18131346406303496462
20739085 24 18339077194168950580
21033648 29 16987135151418450914
21033650 10 16588298342108915829
21304304 249 18412826893362767367
22182313 1 17772471192870916398
23559900 14 18260824916823063593
23569914 152 12254947060844129922
23569943 247 16198459799006522094
2838139 119 12679165108344961626
3004659 81 17748825224083401465
392239 28 16773504534239671187
439807 62 17968666029514036747
465052 167 18412265021698799086
5104073 3 18341900696905735961
5718773 13 18336262427343910611
7064713 232 17418102022496148759
7495541 125 18408040689656676880

> <PUBCHEM_SHAPE_MULTIPOLES>
505.48
13.39
2.9
1.56
1.13
1.27
0.24
-8.77
-4.01
0.16
-0.28
-0.14
-0.63
0.55

> <PUBCHEM_SHAPE_SELFOVERLAP>
1092.358

> <PUBCHEM_SHAPE_VOLUME>
280

> <PUBCHEM_COORDINATE_TYPE>
2
5
10

$$$$
