1071407
  -OEChem-02101610513D

 40 41  0     0  0  0  0  0  0999 V2000
   -7.5205   -1.0893   -0.8939 Cl  0  0  0  0  0  0  0  0  0  0  0  0
    2.8730    1.7574    0.1808 S   0  0  0  0  0  0  0  0  0  0  0  0
   -2.2085    0.6267    0.9314 O   0  0  0  0  0  0  0  0  0  0  0  0
    3.8017   -2.8469    0.7987 O   0  0  0  0  0  0  0  0  0  0  0  0
    0.1310    1.7497    0.6271 O   0  0  0  0  0  0  0  0  0  0  0  0
    1.2427   -0.2990    0.3132 N   0  0  0  0  0  0  0  0  0  0  0  0
    3.4605   -2.6649   -1.4476 N   0  0  0  0  0  0  0  0  0  0  0  0
    4.8397    0.1578   -0.2357 C   0  0  0  0  0  0  0  0  0  0  0  0
    3.6835   -0.6639   -0.1014 C   0  0  0  0  0  0  0  0  0  0  0  0
    2.5895    0.0903    0.1218 C   0  0  0  0  0  0  0  0  0  0  0  0
    4.5412    1.4962   -0.1039 C   0  0  0  0  0  0  0  0  0  0  0  0
    6.2061   -0.3638   -0.4888 C   0  0  0  0  0  0  0  0  0  0  0  0
    5.4491    2.6628   -0.1777 C   0  0  0  0  0  0  0  0  0  0  0  0
    3.6652   -2.1030   -0.1898 C   0  0  0  0  0  0  0  0  0  0  0  0
    0.1483    0.5255    0.5409 C   0  0  0  0  0  0  0  0  0  0  0  0
   -1.1277   -0.2733    0.6950 C   0  0  0  0  0  0  0  0  0  0  0  0
   -3.4416    0.2402    0.4999 C   0  0  0  0  0  0  0  0  0  0  0  0
   -4.1423    1.0032   -0.4340 C   0  0  0  0  0  0  0  0  0  0  0  0
   -4.0023   -0.9339    1.0028 C   0  0  0  0  0  0  0  0  0  0  0  0
   -5.4037    0.5924   -0.8651 C   0  0  0  0  0  0  0  0  0  0  0  0
   -3.5570    2.2624   -0.9831 C   0  0  0  0  0  0  0  0  0  0  0  0
   -5.2637   -1.3448    0.5717 C   0  0  0  0  0  0  0  0  0  0  0  0
   -5.9643   -0.5817   -0.3623 C   0  0  0  0  0  0  0  0  0  0  0  0
    6.1836   -1.2927   -1.0676 H   0  0  0  0  0  0  0  0  0  0  0  0
    6.8123    0.3498   -1.0565 H   0  0  0  0  0  0  0  0  0  0  0  0
    6.7143   -0.5653    0.4599 H   0  0  0  0  0  0  0  0  0  0  0  0
    1.0836   -1.3032    0.2742 H   0  0  0  0  0  0  0  0  0  0  0  0
    6.3611    2.4801    0.4007 H   0  0  0  0  0  0  0  0  0  0  0  0
    5.7379    2.8531   -1.2168 H   0  0  0  0  0  0  0  0  0  0  0  0
    4.9944    3.5776    0.2171 H   0  0  0  0  0  0  0  0  0  0  0  0
   -1.2866   -0.8537   -0.2225 H   0  0  0  0  0  0  0  0  0  0  0  0
   -1.0255   -0.9487    1.5513 H   0  0  0  0  0  0  0  0  0  0  0  0
   -3.4721   -1.5345    1.7369 H   0  0  0  0  0  0  0  0  0  0  0  0
   -5.9517    1.1858   -1.5936 H   0  0  0  0  0  0  0  0  0  0  0  0
   -4.2317    2.7528   -1.6930 H   0  0  0  0  0  0  0  0  0  0  0  0
   -3.3572    2.9731   -0.1745 H   0  0  0  0  0  0  0  0  0  0  0  0
   -2.6220    2.0475   -1.5110 H   0  0  0  0  0  0  0  0  0  0  0  0
   -5.6889   -2.2609    0.9734 H   0  0  0  0  0  0  0  0  0  0  0  0
    3.3363   -2.0958   -2.2789 H   0  0  0  0  0  0  0  0  0  0  0  0
    3.4303   -3.6715   -1.5704 H   0  0  0  0  0  0  0  0  0  0  0  0
  1 23  1  0  0  0  0
  2 10  1  0  0  0  0
  2 11  1  0  0  0  0
  3 16  1  0  0  0  0
  3 17  1  0  0  0  0
  4 14  2  0  0  0  0
  5 15  2  0  0  0  0
  6 10  1  0  0  0  0
  6 15  1  0  0  0  0
  6 27  1  0  0  0  0
  7 14  1  0  0  0  0
  7 39  1  0  0  0  0
  7 40  1  0  0  0  0
  8  9  1  0  0  0  0
  8 11  2  0  0  0  0
  8 12  1  0  0  0  0
  9 10  2  0  0  0  0
  9 14  1  0  0  0  0
 11 13  1  0  0  0  0
 12 24  1  0  0  0  0
 12 25  1  0  0  0  0
 12 26  1  0  0  0  0
 13 28  1  0  0  0  0
 13 29  1  0  0  0  0
 13 30  1  0  0  0  0
 15 16  1  0  0  0  0
 16 31  1  0  0  0  0
 16 32  1  0  0  0  0
 17 18  2  0  0  0  0
 17 19  1  0  0  0  0
 18 20  1  0  0  0  0
 18 21  1  0  0  0  0
 19 22  2  0  0  0  0
 19 33  1  0  0  0  0
 20 23  2  0  0  0  0
 20 34  1  0  0  0  0
 21 35  1  0  0  0  0
 21 36  1  0  0  0  0
 21 37  1  0  0  0  0
 22 23  1  0  0  0  0
 22 38  1  0  0  0  0
M  END
> <PUBCHEM_COMPOUND_CID>
1071407

> <PUBCHEM_CONFORMER_RMSD>
0.8

> <PUBCHEM_CONFORMER_DIVERSEORDER>
1
296
249
301
298
219
272
131
49
74
217
226
7
199
212
62
303
174
59
206
27
310
83
183
265
182
271
8
89
235
240
207
315
167
126
119
94
318
294
153
233
21
184
181
70
267
195
307
102
173
162
260
79
45
157
122
57
172
252
93
76
313
35
151
16
160
192
82
125
200
243
223
227
176
231
248
2
75
42
306
291
316
43
78
188
241
264
222
117
127
216
150
159
156
312
218
54
246
103
87
10
51
279
292
121
281
180
134
66
135
311
304
114
280
289
77
309
3
88
225
113
165
148
203
100
39
285
317
308
152
30
295
9
201
205
146
202
232
274
228
305
96
255
269
50
293
104
98
178
283
164
124
169
198
145
112
155
11
142
273
261
179
196
107
238
287
12
52
22
56
111
257
190
237
319
84
144
168
278
108
224
106
297
116
97
136
171
149
46
275
197
194
270
259
258
37
26
91
288
41
177
220
284
253
23
154
36
38
302
138
65
266
251
48
44
5
209
47
61
234
236
193
133
250
25
67
101
282
242
286
33
277
175
221
276
254
24
143
158
53
170
244
60
210
230
73
120
166
208
247
128
239
211
186
81
314
147
14
189
6
64
245
229
40
299
137
95
118
263
191
262
18
109
20
130
123
132
214
72
68
63
85
4
99
71
290
115
139
29
58
17
19
90
28
215
141
69
268
213
185
31
34
163
161
140
187
256
13
15
110
55
129
204
300
80
92
105
86
32

> <PUBCHEM_MMFF94_PARTIAL_CHARGES>
29
1 -0.18
10 0.1
11 -0.14
12 0.18
13 0.18
14 0.72
15 0.57
16 0.34
17 0.08
18 -0.14
19 -0.15
2 -0.08
20 -0.15
21 0.14
22 -0.15
23 0.18
27 0.37
3 -0.36
33 0.15
34 0.15
38 0.15
39 0.37
4 -0.57
40 0.37
5 -0.57
6 -0.49
7 -0.8
8 -0.18
9 -0.09

> <PUBCHEM_EFFECTIVE_ROTOR_COUNT>
6

> <PUBCHEM_PHARMACOPHORE_FEATURES>
7
1 3 acceptor
1 4 acceptor
1 5 acceptor
1 6 donor
1 7 donor
5 2 8 9 10 11 rings
6 17 18 19 20 22 23 rings

> <PUBCHEM_HEAVY_ATOM_COUNT>
23

> <PUBCHEM_ATOM_DEF_STEREO_COUNT>
0

> <PUBCHEM_ATOM_UDEF_STEREO_COUNT>
0

> <PUBCHEM_BOND_DEF_STEREO_COUNT>
0

> <PUBCHEM_BOND_UDEF_STEREO_COUNT>
0

> <PUBCHEM_ISOTOPIC_ATOM_COUNT>
0

> <PUBCHEM_COMPONENT_COUNT>
1

> <PUBCHEM_CACTVS_TAUTO_COUNT>
7

> <PUBCHEM_CONFORMER_ID>
0010592F00000001

> <PUBCHEM_MMFF94_ENERGY>
69.3802

> <PUBCHEM_FEATURE_SELFOVERLAP>
35.533

> <PUBCHEM_SHAPE_FINGERPRINT>
10299344 5 17988927795298442091
10595046 47 18413389830399449641
10835480 77 18408317796251175693
11089746 13 14273459201322095111
11719270 70 18411415121144489154
12107183 9 17765444140405182304
12236239 1 17560808740092106449
12516196 113 17917709110682680625
12730499 353 18409452518278599168
13533116 47 18201719556948775011
13668630 136 17704077291239813967
14347332 77 18340762664090483457
14573314 32 18186802461204064093
15183329 4 18259982652551014889
15537594 2 17418371406770611191
15961568 22 17603871151928838900
16989378 47 17201663060148265054
17349148 13 16845574205783443063
17492 89 18057047904552535078
17844677 252 18335988575411501669
1813 80 15554441894942406041
18222031 100 15985099713032155217
18335252 98 18263084465501315547
19489759 90 17458062672980073209
19958102 18 17894624817372350855
20157964 124 18408604785817558136
20645477 70 18342462513140439830
21033650 10 16806454595553374348
21150785 3 18201718504792719453
220451 1 17775570862173307275
22061861 79 18410292493343219527
221357 26 18409162221381533761
22393880 68 18042400249138049729
23081809 10 17917997170334561113
23522609 53 17630635455492887057
23559900 14 18262796414729396625
239999 70 18413113836360138886
2838139 119 11458413666511270915
3004659 81 18335421244865615282
314194 84 18060701706103014635
335352 9 18411990183369733580
34797466 226 18333450958757166773
351380 3 16773798103981313677
4073 2 18114749334116903203
4098825 35 18411981322346091625
4325135 7 18341894121199554813
46194498 28 18187364375912644677
497634 4 18413392012817939745
5281201 14 18260833669823721741
5283173 99 18188206503119636253
59755656 215 18333733524724057878
6025842 7 18413390956118282838
6327066 14 17976545228707752020

> <PUBCHEM_SHAPE_MULTIPOLES>
451.48
18.52
2.55
1
13.51
0.41
-0.09
2.39
-4.56
-3.33
-0.38
0.59
0.2
0.83

> <PUBCHEM_SHAPE_SELFOVERLAP>
936.565

> <PUBCHEM_SHAPE_VOLUME>
260.8

> <PUBCHEM_COORDINATE_TYPE>
2
5
10

$$$$
