5349588
  -OEChem-02101610513D

 35 37  0     0  0  0  0  0  0999 V2000
   -2.0359    3.0322    0.1607 S   0  0  0  0  0  0  0  0  0  0  0  0
   -0.5032   -1.8794    0.2433 O   0  0  0  0  0  0  0  0  0  0  0  0
    2.6526    1.6377   -0.1206 O   0  0  0  0  0  0  0  0  0  0  0  0
   -1.2413    0.3515    0.1542 N   0  0  0  0  0  0  0  0  0  0  0  0
    0.3966    2.0703   -0.0367 N   0  0  0  0  0  0  0  0  0  0  0  0
    4.1387   -0.8089   -1.0192 N   0  0  0  0  0  0  0  0  0  0  0  0
   -2.6107   -0.1029    0.1784 C   0  0  0  0  0  0  0  0  0  0  0  0
    1.1425   -0.1884    0.1479 C   0  0  0  0  0  0  0  0  0  0  0  0
   -3.2756   -0.3824   -1.0058 C   0  0  0  0  0  0  0  0  0  0  0  0
   -0.2639   -0.6720    0.2024 C   0  0  0  0  0  0  0  0  0  0  0  0
   -0.9519    1.7394    0.0724 C   0  0  0  0  0  0  0  0  0  0  0  0
   -3.2380   -0.2524    1.4064 C   0  0  0  0  0  0  0  0  0  0  0  0
    1.4978    1.2350   -0.0190 C   0  0  0  0  0  0  0  0  0  0  0  0
    2.1389   -1.0812    0.2435 C   0  0  0  0  0  0  0  0  0  0  0  0
    3.5756   -0.7709    0.1958 C   0  0  0  0  0  0  0  0  0  0  0  0
   -4.5987   -0.8218   -0.9614 C   0  0  0  0  0  0  0  0  0  0  0  0
   -2.6123   -0.2256   -2.3355 C   0  0  0  0  0  0  0  0  0  0  0  0
   -4.5612   -0.6918    1.4507 C   0  0  0  0  0  0  0  0  0  0  0  0
   -5.2414   -0.9765    0.2669 C   0  0  0  0  0  0  0  0  0  0  0  0
    4.4464   -0.4508    1.1508 C   0  0  0  0  0  0  0  0  0  0  0  0
    5.4628   -0.4942   -0.8579 C   0  0  0  0  0  0  0  0  0  0  0  0
    5.6822   -0.2670    0.4827 C   0  0  0  0  0  0  0  0  0  0  0  0
   -2.7157   -0.0348    2.3340 H   0  0  0  0  0  0  0  0  0  0  0  0
    1.9206   -2.1397    0.3670 H   0  0  0  0  0  0  0  0  0  0  0  0
    0.5999    3.0632   -0.1161 H   0  0  0  0  0  0  0  0  0  0  0  0
   -5.1440   -1.0479   -1.8739 H   0  0  0  0  0  0  0  0  0  0  0  0
   -2.3238    0.8162   -2.5054 H   0  0  0  0  0  0  0  0  0  0  0  0
   -1.7249   -0.8631   -2.4026 H   0  0  0  0  0  0  0  0  0  0  0  0
   -3.2774   -0.5145   -3.1569 H   0  0  0  0  0  0  0  0  0  0  0  0
   -5.0615   -0.8126    2.4071 H   0  0  0  0  0  0  0  0  0  0  0  0
   -6.2716   -1.3186    0.3016 H   0  0  0  0  0  0  0  0  0  0  0  0
    3.6911   -1.0251   -1.9008 H   0  0  0  0  0  0  0  0  0  0  0  0
    4.2617   -0.3492    2.2110 H   0  0  0  0  0  0  0  0  0  0  0  0
    6.1286   -0.4601   -1.7089 H   0  0  0  0  0  0  0  0  0  0  0  0
    6.6293    0.0025    0.9291 H   0  0  0  0  0  0  0  0  0  0  0  0
  1 11  2  0  0  0  0
  2 10  2  0  0  0  0
  3 13  2  0  0  0  0
  4  7  1  0  0  0  0
  4 10  1  0  0  0  0
  4 11  1  0  0  0  0
  5 11  1  0  0  0  0
  5 13  1  0  0  0  0
  5 25  1  0  0  0  0
  6 15  1  0  0  0  0
  6 21  1  0  0  0  0
  6 32  1  0  0  0  0
  7  9  1  0  0  0  0
  7 12  2  0  0  0  0
  8 10  1  0  0  0  0
  8 13  1  0  0  0  0
  8 14  2  0  0  0  0
  9 16  2  0  0  0  0
  9 17  1  0  0  0  0
 12 18  1  0  0  0  0
 12 23  1  0  0  0  0
 14 15  1  0  0  0  0
 14 24  1  0  0  0  0
 15 20  2  0  0  0  0
 16 19  1  0  0  0  0
 16 26  1  0  0  0  0
 17 27  1  0  0  0  0
 17 28  1  0  0  0  0
 17 29  1  0  0  0  0
 18 19  2  0  0  0  0
 18 30  1  0  0  0  0
 19 31  1  0  0  0  0
 20 22  1  0  0  0  0
 20 33  1  0  0  0  0
 21 22  2  0  0  0  0
 21 34  1  0  0  0  0
 22 35  1  0  0  0  0
M  END
> <PUBCHEM_COMPOUND_CID>
5349588

> <PUBCHEM_CONFORMER_RMSD>
0.6

> <PUBCHEM_CONFORMER_DIVERSEORDER>
1
4
2
3

> <PUBCHEM_MMFF94_PARTIAL_CHARGES>
32
1 -0.38
10 0.62
11 0.5
12 -0.15
13 0.62
14 -0.11
15 -0.2
16 -0.15
17 0.14
18 -0.15
19 -0.15
2 -0.57
20 -0.15
21 -0.3
22 -0.15
23 0.15
24 0.15
25 0.37
26 0.15
3 -0.57
30 0.15
31 0.15
32 0.27
33 0.15
34 0.15
35 0.15
4 -0.24
5 -0.49
6 0.03
7 0.12
8 0.03
9 -0.14

> <PUBCHEM_EFFECTIVE_ROTOR_COUNT>
2.4

> <PUBCHEM_PHARMACOPHORE_FEATURES>
10
1 1 acceptor
1 2 acceptor
1 3 acceptor
1 5 donor
1 6 cation
1 6 donor
1 8 anion
5 6 15 20 21 22 rings
6 4 5 8 10 11 13 rings
6 7 9 12 16 18 19 rings

> <PUBCHEM_HEAVY_ATOM_COUNT>
22

> <PUBCHEM_ATOM_DEF_STEREO_COUNT>
0

> <PUBCHEM_ATOM_UDEF_STEREO_COUNT>
0

> <PUBCHEM_BOND_DEF_STEREO_COUNT>
0

> <PUBCHEM_BOND_UDEF_STEREO_COUNT>
1

> <PUBCHEM_ISOTOPIC_ATOM_COUNT>
0

> <PUBCHEM_COMPONENT_COUNT>
1

> <PUBCHEM_CACTVS_TAUTO_COUNT>
3

> <PUBCHEM_CONFORMER_ID>
0051A0D400000001

> <PUBCHEM_MMFF94_ENERGY>
88.6735

> <PUBCHEM_FEATURE_SELFOVERLAP>
50.746

> <PUBCHEM_SHAPE_FINGERPRINT>
10670039 82 18188785942343401598
11089746 13 12251901512493114982
11315181 36 17603872191652873048
11543360 7 15647055971115684298
11552529 35 15553579929175926574
11796584 16 16660359272914011490
12107183 9 15622037516150407898
12236239 1 17775005726187014395
12553582 1 18412257337617366378
13009979 54 17416963018881476231
13140716 1 18265616670264567258
13583140 156 14476958956653423763
13862211 1 18409726270429838634
13911987 19 18259987093152021534
14840074 17 18202564007685510948
15209289 33 18131071541097006747
15849732 13 17775564243966132685
16752209 62 18335974281849797200
17349148 13 18335419067259011410
17357779 13 18337379487564109861
1813 80 18272381866241175588
18222031 100 18342170081237907578
19141452 34 17632856451410325463
19489759 90 14634867543885494046
200 152 18334290963912665603
20028762 73 18200598137010457071
20602899 9 15574722391138387841
21033648 29 17968641813480567277
21236236 1 18338800005079250272
21267235 1 18410582794198193970
21641784 216 18041576753784655292
22182313 1 17844259423270663069
23175994 123 18260548961438218085
23402539 116 18341609304448156759
23557571 272 18059862718754427700
23559900 14 16298385802969908591
23569914 2 15406631110815085098
23569943 247 17772204015604282198
25147074 1 18337409183037150540
314173 85 18343866610399528456
34797466 226 16443642241393115702
34934 24 18193838137700774305
350125 39 18410016519887857792
5104073 3 18267579110026487338
7495541 125 17531250594956822710
8863177 126 17751938053709317347

> <PUBCHEM_SHAPE_MULTIPOLES>
429.92
11.72
1.98
1.31
8.1
1.91
-0.4
-4.72
0.36
-0.96
0.09
-1.1
-0.31
0.03

> <PUBCHEM_SHAPE_SELFOVERLAP>
935.991

> <PUBCHEM_SHAPE_VOLUME>
235.7

> <PUBCHEM_COORDINATE_TYPE>
2
5
10

$$$$
