5341739
  -OEChem-02101610503D

 37 39  0     0  0  0  0  0  0999 V2000
    4.0946    1.3553   -1.7014 O   0  0  0  0  0  0  0  0  0  0  0  0
    5.9984   -0.4962   -1.3169 O   0  0  0  0  0  0  0  0  0  0  0  0
    5.8453   -2.3080    0.6711 O   0  0  0  0  0  0  0  0  0  0  0  0
   -2.3699    3.1981    0.1171 N   0  0  0  0  0  0  0  0  0  0  0  0
   -1.9043    0.8535    0.2489 N   0  0  0  0  0  0  0  0  0  0  0  0
   -3.6602    2.9423   -0.1601 N   0  0  0  0  0  0  0  0  0  0  0  0
   -0.2303    2.4760    0.5848 N   0  0  0  0  0  0  0  0  0  0  0  0
    0.7428    1.5556    0.7868 N   0  0  0  0  0  0  0  0  0  0  0  0
   -3.2499    0.6271   -0.0340 C   0  0  0  0  0  0  0  0  0  0  0  0
   -3.7114   -0.7751   -0.1295 C   0  0  0  0  0  0  0  0  0  0  0  0
   -1.5253    2.1140    0.3131 C   0  0  0  0  0  0  0  0  0  0  0  0
   -4.1060    1.6510   -0.2394 C   0  0  0  0  0  0  0  0  0  0  0  0
    2.8383    0.5126    0.1793 C   0  0  0  0  0  0  0  0  0  0  0  0
   -5.0316   -1.1002    0.1886 C   0  0  0  0  0  0  0  0  0  0  0  0
   -2.8288   -1.7774   -0.5369 C   0  0  0  0  0  0  0  0  0  0  0  0
    1.8586    1.4161    0.0340 C   0  0  0  0  0  0  0  0  0  0  0  0
    3.9705    0.5632   -0.7826 C   0  0  0  0  0  0  0  0  0  0  0  0
    2.8231   -0.4893    1.2255 C   0  0  0  0  0  0  0  0  0  0  0  0
   -5.4674   -2.4224    0.0991 C   0  0  0  0  0  0  0  0  0  0  0  0
   -3.2646   -3.0995   -0.6261 C   0  0  0  0  0  0  0  0  0  0  0  0
   -4.5840   -3.4222   -0.3084 C   0  0  0  0  0  0  0  0  0  0  0  0
    5.0354   -0.4745   -0.5682 C   0  0  0  0  0  0  0  0  0  0  0  0
    3.7719   -1.4146    1.4167 C   0  0  0  0  0  0  0  0  0  0  0  0
    4.9548   -1.4854    0.5387 C   0  0  0  0  0  0  0  0  0  0  0  0
   -5.1548    1.5694   -0.4902 H   0  0  0  0  0  0  0  0  0  0  0  0
   -2.0533    4.1595    0.1754 H   0  0  0  0  0  0  0  0  0  0  0  0
   -4.3047    3.7050   -0.3296 H   0  0  0  0  0  0  0  0  0  0  0  0
   -5.7448   -0.3559    0.5320 H   0  0  0  0  0  0  0  0  0  0  0  0
   -1.7973   -1.5541   -0.7981 H   0  0  0  0  0  0  0  0  0  0  0  0
    0.0324    3.4543    0.6532 H   0  0  0  0  0  0  0  0  0  0  0  0
    1.8983    2.1522   -0.7642 H   0  0  0  0  0  0  0  0  0  0  0  0
    0.6057    0.9320    1.5734 H   0  0  0  0  0  0  0  0  0  0  0  0
    1.9862   -0.5089    1.9172 H   0  0  0  0  0  0  0  0  0  0  0  0
   -6.4932   -2.6749    0.3518 H   0  0  0  0  0  0  0  0  0  0  0  0
   -2.5773   -3.8778   -0.9446 H   0  0  0  0  0  0  0  0  0  0  0  0
   -4.9231   -4.4517   -0.3772 H   0  0  0  0  0  0  0  0  0  0  0  0
    3.6974   -2.1374    2.2213 H   0  0  0  0  0  0  0  0  0  0  0  0
  1 17  2  0  0  0  0
  2 22  2  0  0  0  0
  3 24  2  0  0  0  0
  4  6  1  0  0  0  0
  4 11  1  0  0  0  0
  4 26  1  0  0  0  0
  5  9  1  0  0  0  0
  5 11  2  0  0  0  0
  6 12  1  0  0  0  0
  6 27  1  0  0  0  0
  7  8  1  0  0  0  0
  7 11  1  0  0  0  0
  7 30  1  0  0  0  0
  8 16  1  0  0  0  0
  8 32  1  0  0  0  0
  9 10  1  0  0  0  0
  9 12  2  0  0  0  0
 10 14  2  0  0  0  0
 10 15  1  0  0  0  0
 12 25  1  0  0  0  0
 13 16  2  0  0  0  0
 13 17  1  0  0  0  0
 13 18  1  0  0  0  0
 14 19  1  0  0  0  0
 14 28  1  0  0  0  0
 15 20  2  0  0  0  0
 15 29  1  0  0  0  0
 16 31  1  0  0  0  0
 17 22  1  0  0  0  0
 18 23  2  0  0  0  0
 18 33  1  0  0  0  0
 19 21  2  0  0  0  0
 19 34  1  0  0  0  0
 20 21  1  0  0  0  0
 20 35  1  0  0  0  0
 21 36  1  0  0  0  0
 22 24  1  0  0  0  0
 23 24  1  0  0  0  0
 23 37  1  0  0  0  0
M  END
> <PUBCHEM_COMPOUND_CID>
5341739

> <PUBCHEM_CONFORMER_RMSD>
0.8

> <PUBCHEM_CONFORMER_DIVERSEORDER>
1
75
80
27
67
16
42
41
64
71
56
35
57
88
70
72
12
21
68
30
69
13
79
46
3
74
60
84
15
76
8
28
17
47
50
20
87
23
55
51
32
11
66
4
63
36
5
40
53
29
38
54
14
78
90
34
59
44
31
45
61
52
39
62
49
24
91
65
25
37
48
89
9
73
92
77
7
22
2
19
26
10
81
58
82
18
43
33
85
6
83
86

> <PUBCHEM_MMFF94_PARTIAL_CHARGES>
37
1 -0.57
10 0.03
11 0.55
12 -0.05
13 0.01
14 -0.15
15 -0.15
16 -0.05
17 0.56
18 -0.15
19 -0.15
2 -0.57
20 -0.15
21 -0.15
22 0.57
23 -0.14
24 0.56
25 0.15
26 0.4
27 0.4
28 0.15
29 0.15
3 -0.57
30 0.4
31 0.15
32 0.4
33 0.15
34 0.15
35 0.15
36 0.15
37 0.15
4 -0.45
5 -0.62
6 -0.5
7 -0.45
8 -0.5
9 0.14

> <PUBCHEM_EFFECTIVE_ROTOR_COUNT>
4.4

> <PUBCHEM_PHARMACOPHORE_FEATURES>
12
1 1 acceptor
1 2 acceptor
1 22 anion
1 3 acceptor
1 4 donor
1 6 donor
1 7 donor
1 8 donor
4 4 5 7 11 cation
6 10 14 15 19 20 21 rings
6 13 17 18 22 23 24 rings
6 4 5 6 9 11 12 rings

> <PUBCHEM_HEAVY_ATOM_COUNT>
24

> <PUBCHEM_ATOM_DEF_STEREO_COUNT>
0

> <PUBCHEM_ATOM_UDEF_STEREO_COUNT>
0

> <PUBCHEM_BOND_DEF_STEREO_COUNT>
1

> <PUBCHEM_BOND_UDEF_STEREO_COUNT>
0

> <PUBCHEM_ISOTOPIC_ATOM_COUNT>
0

> <PUBCHEM_COMPONENT_COUNT>
1

> <PUBCHEM_CACTVS_TAUTO_COUNT>
120

> <PUBCHEM_CONFORMER_ID>
0051822B00000001

> <PUBCHEM_MMFF94_ENERGY>
66.3969

> <PUBCHEM_FEATURE_SELFOVERLAP>
64.244

> <PUBCHEM_SHAPE_FINGERPRINT>
10595046 47 18334582369212850820
10622 236 18042670733373318938
10928967 22 18341895259187332387
11524674 6 17489585637431499143
11796584 16 18269275669147539220
11809386 21 18334009475998370867
11991303 11 17968648312852880277
12760667 363 18272085028983754087
12788726 201 18409169926325802059
12990986 174 18412537717261099313
13167823 11 18261393325827104320
13726171 33 17986137259919634344
13911852 28 18123464145463763319
14251751 18 18342170060111231106
14251757 5 18336269041097609499
14251764 30 18117566347722678155
14289585 56 16951126145593177022
14347332 77 18409164433030871111
14480069 147 17967537878258172395
14866123 147 18341897377591737371
15042514 8 18411697686937456217
15250474 111 18261949661536535098
15352361 1 18340484577394602451
15537594 2 18335712684060892843
16120349 21 18271255971615497059
17492 89 18338230565377159387
17909252 39 18341614862700555186
20403669 9 18272374217299930207
21054139 6 18259704506611853858
21857420 4 15328936719830698807
22950370 63 18338519758848100211
23559900 14 18341036493546074225
3004659 81 18187640323440115482
316301 35 18341887537051554938
329604 57 18408889572282736326
338550 245 18336548205724754190
397830 11 18129924742818039490
439807 62 18261112997760025931
44062 13 18411697664940126793
44880168 125 17417820555635198286
474144 1 17678433317279590643
508706 21 18271810068881939175
5104073 3 18131349717507355104
559249 180 18263358097308392569
56633871 153 18199190775443919363
6371380 46 18130219334367318553
6823239 73 18201429303243658096
7062679 13 18340204197550110731
7970288 3 18194960970943438727

> <PUBCHEM_SHAPE_MULTIPOLES>
451.4
15.06
3.92
1.05
9.25
0.15
-0.08
-10.62
-1.88
-5.41
0.04
1.52
-0.13
-1.37

> <PUBCHEM_SHAPE_SELFOVERLAP>
981.693

> <PUBCHEM_SHAPE_VOLUME>
241.5

> <PUBCHEM_COORDINATE_TYPE>
2
5
10

$$$$
