2058735
  -OEChem-02101610443D

 41 44  0     0  0  0  0  0  0999 V2000
    4.6759    5.0628    0.0357 Br  0  0  0  0  0  0  0  0  0  0  0  0
   -1.5296    2.7130   -0.0285 S   0  0  0  0  0  0  0  0  0  0  0  0
    2.1190   -0.8756   -0.1014 O   0  0  0  0  0  0  0  0  0  0  0  0
   -2.3525   -2.3354    0.1447 O   0  0  0  0  0  0  0  0  0  0  0  0
    2.4153   -3.5311    1.1064 O   0  0  0  0  0  0  0  0  0  0  0  0
    0.3967    0.7137   -0.0293 N   0  0  0  0  0  0  0  0  0  0  0  0
   -1.9015   -0.0375    0.0306 N   0  0  0  0  0  0  0  0  0  0  0  0
   -0.0989   -1.6601    0.0228 C   0  0  0  0  0  0  0  0  0  0  0  0
   -0.9973    1.0866   -0.0082 C   0  0  0  0  0  0  0  0  0  0  0  0
    0.9206   -0.5952   -0.0550 C   0  0  0  0  0  0  0  0  0  0  0  0
   -1.5510   -1.4021    0.0853 C   0  0  0  0  0  0  0  0  0  0  0  0
    1.4080    1.7416   -0.0140 C   0  0  0  0  0  0  0  0  0  0  0  0
   -3.3246    0.1935    0.0053 C   0  0  0  0  0  0  0  0  0  0  0  0
    0.3186   -2.9361    0.0385 C   0  0  0  0  0  0  0  0  0  0  0  0
    1.8790    2.2462   -1.2144 C   0  0  0  0  0  0  0  0  0  0  0  0
    1.8870    2.2023    1.2011 C   0  0  0  0  0  0  0  0  0  0  0  0
   -4.0072    0.3467    1.2007 C   0  0  0  0  0  0  0  0  0  0  0  0
   -3.9791    0.2579   -1.2135 C   0  0  0  0  0  0  0  0  0  0  0  0
    1.7194   -3.3805   -0.0163 C   0  0  0  0  0  0  0  0  0  0  0  0
    2.8572    3.2404   -1.1996 C   0  0  0  0  0  0  0  0  0  0  0  0
    2.8653    3.1966    1.2161 C   0  0  0  0  0  0  0  0  0  0  0  0
   -5.3838    0.5706    1.1765 C   0  0  0  0  0  0  0  0  0  0  0  0
   -5.3557    0.4820   -1.2377 C   0  0  0  0  0  0  0  0  0  0  0  0
    3.3504    3.7157    0.0157 C   0  0  0  0  0  0  0  0  0  0  0  0
   -6.0580    0.6383   -0.0425 C   0  0  0  0  0  0  0  0  0  0  0  0
    2.4002   -3.6657   -1.1369 C   0  0  0  0  0  0  0  0  0  0  0  0
    3.6842   -4.0432   -0.6766 C   0  0  0  0  0  0  0  0  0  0  0  0
    3.6424   -3.9450    0.6947 C   0  0  0  0  0  0  0  0  0  0  0  0
   -0.3956   -3.7538    0.0967 H   0  0  0  0  0  0  0  0  0  0  0  0
    1.5011    1.8802   -2.1649 H   0  0  0  0  0  0  0  0  0  0  0  0
    1.5152    1.8019    2.1401 H   0  0  0  0  0  0  0  0  0  0  0  0
   -3.4895    0.2940    2.1544 H   0  0  0  0  0  0  0  0  0  0  0  0
   -3.4396    0.1359   -2.1485 H   0  0  0  0  0  0  0  0  0  0  0  0
    3.2247    3.6339   -2.1439 H   0  0  0  0  0  0  0  0  0  0  0  0
    3.2390    3.5555    2.1716 H   0  0  0  0  0  0  0  0  0  0  0  0
   -5.9306    0.6920    2.1071 H   0  0  0  0  0  0  0  0  0  0  0  0
   -5.8809    0.5344   -2.1869 H   0  0  0  0  0  0  0  0  0  0  0  0
   -7.1298    0.8126   -0.0614 H   0  0  0  0  0  0  0  0  0  0  0  0
    2.0574   -3.6207   -2.1609 H   0  0  0  0  0  0  0  0  0  0  0  0
    4.5339   -4.3485   -1.2700 H   0  0  0  0  0  0  0  0  0  0  0  0
    4.3630   -4.1239    1.4793 H   0  0  0  0  0  0  0  0  0  0  0  0
  1 24  1  0  0  0  0
  2  9  2  0  0  0  0
  3 10  2  0  0  0  0
  4 11  2  0  0  0  0
  5 19  1  0  0  0  0
  5 28  1  0  0  0  0
  6  9  1  0  0  0  0
  6 10  1  0  0  0  0
  6 12  1  0  0  0  0
  7  9  1  0  0  0  0
  7 11  1  0  0  0  0
  7 13  1  0  0  0  0
  8 10  1  0  0  0  0
  8 11  1  0  0  0  0
  8 14  2  0  0  0  0
 12 15  2  0  0  0  0
 12 16  1  0  0  0  0
 13 17  2  0  0  0  0
 13 18  1  0  0  0  0
 14 19  1  0  0  0  0
 14 29  1  0  0  0  0
 15 20  1  0  0  0  0
 15 30  1  0  0  0  0
 16 21  2  0  0  0  0
 16 31  1  0  0  0  0
 17 22  1  0  0  0  0
 17 32  1  0  0  0  0
 18 23  2  0  0  0  0
 18 33  1  0  0  0  0
 19 26  2  0  0  0  0
 20 24  2  0  0  0  0
 20 34  1  0  0  0  0
 21 24  1  0  0  0  0
 21 35  1  0  0  0  0
 22 25  2  0  0  0  0
 22 36  1  0  0  0  0
 23 25  1  0  0  0  0
 23 37  1  0  0  0  0
 25 38  1  0  0  0  0
 26 27  1  0  0  0  0
 26 39  1  0  0  0  0
 27 28  2  0  0  0  0
 27 40  1  0  0  0  0
 28 41  1  0  0  0  0
M  END
> <PUBCHEM_COMPOUND_CID>
2058735

> <PUBCHEM_CONFORMER_RMSD>
0.8

> <PUBCHEM_CONFORMER_DIVERSEORDER>
1
2
3
4

> <PUBCHEM_MMFF94_PARTIAL_CHARGES>
41
1 -0.11
10 0.62
11 0.62
12 0.12
13 0.12
14 -0.11
15 -0.15
16 -0.15
17 -0.15
18 -0.15
19 0.09
2 -0.38
20 -0.15
21 -0.15
22 -0.15
23 -0.15
24 0.11
25 -0.15
26 -0.15
27 -0.15
28 -0.01
29 0.15
3 -0.57
30 0.15
31 0.15
32 0.15
33 0.15
34 0.15
35 0.15
36 0.15
37 0.15
38 0.15
39 0.15
4 -0.57
40 0.15
41 0.15
5 -0.28
6 -0.24
7 -0.24
8 0.03
9 0.5

> <PUBCHEM_EFFECTIVE_ROTOR_COUNT>
3.4

> <PUBCHEM_PHARMACOPHORE_FEATURES>
10
1 1 hydrophobe
1 2 acceptor
1 3 acceptor
1 4 acceptor
1 5 acceptor
1 8 anion
5 5 19 26 27 28 rings
6 12 15 16 20 21 24 rings
6 13 17 18 22 23 25 rings
6 6 7 8 9 10 11 rings

> <PUBCHEM_HEAVY_ATOM_COUNT>
28

> <PUBCHEM_ATOM_DEF_STEREO_COUNT>
0

> <PUBCHEM_ATOM_UDEF_STEREO_COUNT>
0

> <PUBCHEM_BOND_DEF_STEREO_COUNT>
1

> <PUBCHEM_BOND_UDEF_STEREO_COUNT>
0

> <PUBCHEM_ISOTOPIC_ATOM_COUNT>
0

> <PUBCHEM_COMPONENT_COUNT>
1

> <PUBCHEM_CACTVS_TAUTO_COUNT>
1

> <PUBCHEM_CONFORMER_ID>
001F69EF00000001

> <PUBCHEM_MMFF94_ENERGY>
137.6809

> <PUBCHEM_FEATURE_SELFOVERLAP>
50.749

> <PUBCHEM_SHAPE_FINGERPRINT>
10050765 1 18410575098751163459
102385 1 18337955722015804291
10411042 1 18050568443617064287
10675989 125 18341906220429187968
11049842 53 17972055875022120652
11331351 85 17485088492517689691
11763715 3 17691429420418973846
12788726 201 16965473474669714113
13140716 1 18337955713282347234
133893 2 18339660948611618105
13540713 4 18186525419488470243
13540713 5 18202560697041562151
13590594 115 17978517438333145481
13757389 114 17614855432004117228
138480 1 18338798883997489508
13911987 19 18192418895939211733
13955234 65 18409455777779007873
14068700 686 15529132949943497104
14363568 33 18338250270856054882
14790565 3 18194122051834170296
14844126 61 17183901909889833672
14955137 171 17836952004868420059
15042514 8 16968300899365807090
15081414 286 18339923693362836914
15230672 131 18120658187922129212
15439362 3 18409726266319487613
15927050 60 18269278039410778902
15961568 22 18267859485750850690
16087824 20 17258217363952006677
167882 2 18410289216367380191
17980427 26 18342451582105859036
1813 80 17985271759658314703
18785283 64 18408040710498491227
19784866 34 18268149932376010045
20238998 120 18050845520778937196
20600515 1 17480587044680023092
21049683 271 18189631470378690350
21120745 212 17692550918284310244
21796203 349 17907335115337695419
23366157 5 18334011696417607547
23559900 14 18410290293987784443
23569917 315 18268143347901300438
23929065 36 17112386946284083162
24771293 8 18128805366339245770
24771750 20 18264785400956387358
249057 25 17774724140069006617
249999 5 18410578404989284139
283562 15 17764306541524895911
3091708 16 9183963895396160250
4409770 3 17544750596096142206
5171179 24 18192138309830430821
5265222 85 18046364182347377460
5385378 56 18339089271648966457
57124632 79 18410569625791515273
6669772 16 18340211903038016484
70251023 43 18267017263911341187
77188 2 18122626046481784078
9981440 41 18120653797135516499

> <PUBCHEM_SHAPE_MULTIPOLES>
558.45
10.18
7.05
1.15
12.08
4.68
-0.03
-8.45
-0.06
-14.76
-0.05
0.16
-0.24
0.07

> <PUBCHEM_SHAPE_SELFOVERLAP>
1213.92

> <PUBCHEM_SHAPE_VOLUME>
311.6

> <PUBCHEM_COORDINATE_TYPE>
2
5
10

$$$$
