2868477
  -OEChem-02101610503D

 42 44  0     0  0  0  0  0  0999 V2000
   -2.6460   -1.9929    0.7257 Cl  0  0  0  0  0  0  0  0  0  0  0  0
   -7.8281   -1.0904   -0.4152 Cl  0  0  0  0  0  0  0  0  0  0  0  0
   -1.5918    1.0667   -0.8244 O   0  0  0  0  0  0  0  0  0  0  0  0
    3.0185   -0.9271   -2.0443 O   0  0  0  0  0  0  0  0  0  0  0  0
    3.0563    2.3299    1.8352 O   0  0  0  0  0  0  0  0  0  0  0  0
   -0.3389    1.5957   -0.5730 N   0  0  0  0  0  0  0  0  0  0  0  0
    0.8408   -0.5541   -0.3151 N   0  0  0  0  0  0  0  0  0  0  0  0
    1.8612    1.6317    1.6513 N   0  0  0  0  0  0  0  0  0  0  0  0
    3.7058    2.5488    0.6187 N   0  0  0  0  0  0  0  0  0  0  0  0
    3.1135    1.9388   -1.6273 N   0  0  0  0  0  0  0  0  0  0  0  0
   -3.6503    0.4887    0.2170 C   0  0  0  0  0  0  0  0  0  0  0  0
   -2.2808    1.0522    0.4186 C   0  0  0  0  0  0  0  0  0  0  0  0
    0.6798    0.7297   -0.2308 C   0  0  0  0  0  0  0  0  0  0  0  0
    2.0239   -1.1620    0.1247 C   0  0  0  0  0  0  0  0  0  0  0  0
   -3.9047   -0.8777    0.3367 C   0  0  0  0  0  0  0  0  0  0  0  0
   -4.6877    1.3663   -0.0979 C   0  0  0  0  0  0  0  0  0  0  0  0
    3.0969   -1.3399   -0.7480 C   0  0  0  0  0  0  0  0  0  0  0  0
    1.8224    1.4522    0.3512 C   0  0  0  0  0  0  0  0  0  0  0  0
    2.1209   -1.5918    1.4478 C   0  0  0  0  0  0  0  0  0  0  0  0
   -5.1965   -1.3663    0.1412 C   0  0  0  0  0  0  0  0  0  0  0  0
   -5.9794    0.8777   -0.2933 C   0  0  0  0  0  0  0  0  0  0  0  0
   -6.2338   -0.4885   -0.1738 C   0  0  0  0  0  0  0  0  0  0  0  0
    4.2684   -1.9482   -0.2968 C   0  0  0  0  0  0  0  0  0  0  0  0
    3.2923   -2.2000    1.8987 C   0  0  0  0  0  0  0  0  0  0  0  0
    4.3660   -2.3783    1.0266 C   0  0  0  0  0  0  0  0  0  0  0  0
    2.9078    1.9881   -0.2882 C   0  0  0  0  0  0  0  0  0  0  0  0
    4.1632   -1.1492   -2.8651 C   0  0  0  0  0  0  0  0  0  0  0  0
   -2.3633    2.0800    0.7997 H   0  0  0  0  0  0  0  0  0  0  0  0
   -1.7232    0.4942    1.1805 H   0  0  0  0  0  0  0  0  0  0  0  0
   -4.5050    2.4331   -0.1974 H   0  0  0  0  0  0  0  0  0  0  0  0
   -0.2940    2.6013   -0.4387 H   0  0  0  0  0  0  0  0  0  0  0  0
    1.2886   -1.4619    2.1348 H   0  0  0  0  0  0  0  0  0  0  0  0
   -5.3968   -2.4317    0.2341 H   0  0  0  0  0  0  0  0  0  0  0  0
   -6.7779    1.5732   -0.5388 H   0  0  0  0  0  0  0  0  0  0  0  0
    5.1423   -2.1200   -0.9155 H   0  0  0  0  0  0  0  0  0  0  0  0
    3.3681   -2.5356    2.9288 H   0  0  0  0  0  0  0  0  0  0  0  0
    5.2777   -2.8522    1.3790 H   0  0  0  0  0  0  0  0  0  0  0  0
    2.4662    1.4933   -2.2705 H   0  0  0  0  0  0  0  0  0  0  0  0
    3.9374    2.3459   -2.0588 H   0  0  0  0  0  0  0  0  0  0  0  0
    4.3723   -2.2176   -2.9862 H   0  0  0  0  0  0  0  0  0  0  0  0
    5.0340   -0.5911   -2.5044 H   0  0  0  0  0  0  0  0  0  0  0  0
    3.9262   -0.7576   -3.8599 H   0  0  0  0  0  0  0  0  0  0  0  0
  1 15  1  0  0  0  0
  2 22  1  0  0  0  0
  3  6  1  0  0  0  0
  3 12  1  0  0  0  0
  4 17  1  0  0  0  0
  4 27  1  0  0  0  0
  5  8  1  0  0  0  0
  5  9  1  0  0  0  0
  6 13  1  0  0  0  0
  6 31  1  0  0  0  0
  7 13  2  0  0  0  0
  7 14  1  0  0  0  0
  8 18  2  0  0  0  0
  9 26  2  0  0  0  0
 10 26  1  0  0  0  0
 10 38  1  0  0  0  0
 10 39  1  0  0  0  0
 11 12  1  0  0  0  0
 11 15  2  0  0  0  0
 11 16  1  0  0  0  0
 12 28  1  0  0  0  0
 12 29  1  0  0  0  0
 13 18  1  0  0  0  0
 14 17  1  0  0  0  0
 14 19  2  0  0  0  0
 15 20  1  0  0  0  0
 16 21  2  0  0  0  0
 16 30  1  0  0  0  0
 17 23  2  0  0  0  0
 18 26  1  0  0  0  0
 19 24  1  0  0  0  0
 19 32  1  0  0  0  0
 20 22  2  0  0  0  0
 20 33  1  0  0  0  0
 21 22  1  0  0  0  0
 21 34  1  0  0  0  0
 23 25  1  0  0  0  0
 23 35  1  0  0  0  0
 24 25  2  0  0  0  0
 24 36  1  0  0  0  0
 25 37  1  0  0  0  0
 27 40  1  0  0  0  0
 27 41  1  0  0  0  0
 27 42  1  0  0  0  0
M  END
> <PUBCHEM_COMPOUND_CID>
2868477

> <PUBCHEM_CONFORMER_RMSD>
0.8

> <PUBCHEM_CONFORMER_DIVERSEORDER>
29
170
45
291
275
77
235
268
281
32
312
161
230
105
95
154
276
309
187
190
152
196
137
71
297
156
290
301
264
62
164
171
277
298
232
88
208
60
241
165
159
182
217
79
308
319
119
135
83
131
296
294
289
115
19
99
201
153
188
317
310
43
147
272
149
102
304
67
283
220
306
218
216
240
21
124
295
219
22
224
287
27
213
58
144
13
211
261
185
138
139
259
127
316
214
250
278
318
122
87
179
53
123
254
74
68
17
167
293
222
236
46
181
186
249
40
72
11
256
110
210
313
63
299
59
251
15
303
260
233
163
311
176
35
64
307
142
265
178
315
23
57
202
10
143
191
266
14
70
113
207
34
292
8
140
288
271
205
51
274
108
31
212
78
91
174
162
204
9
245
255
223
56
314
18
242
117
47
7
239
192
198
229
248
4
38
96
129
41
103
55
183
109
267
231
75
282
184
81
247
262
28
195
286
50
12
305
225
93
100
200
221
6
69
227
80
120
101
280
20
166
209
193
263
49
107
3
228
160
1
126
175
33
197
114
5
84
94
48
2
177
36
133
54
30
92
285
42
148
302
284
132
244
158
128
141
168
279
24
155
85
16
104
180
273
37
300
125
65
320
86
269
116
52
25
169
118
44
89
134
257
61
215
203
173
76
189
39
226
66
82
252
270
26
243
121
234
145
238
146
172
206
237
97
150
73
106
111
253
258
90
151
199
130
112
157
194
246
136
98

> <PUBCHEM_MMFF94_PARTIAL_CHARGES>
37
1 -0.18
10 -0.88
11 -0.14
12 0.42
13 0.59
14 0.18
15 0.18
16 -0.15
17 0.08
18 0.2
19 -0.15
2 -0.18
20 -0.15
21 -0.15
22 0.18
23 -0.15
24 -0.15
25 -0.15
26 0.37
27 0.28
3 -0.26
30 0.15
31 0.4
32 0.15
33 0.15
34 0.15
35 0.15
36 0.15
37 0.15
38 0.4
39 0.4
4 -0.36
5 0.24
6 -0.47
7 -0.63
8 -0.41
9 -0.41

> <PUBCHEM_EFFECTIVE_ROTOR_COUNT>
7

> <PUBCHEM_PHARMACOPHORE_FEATURES>
9
1 10 donor
1 4 acceptor
1 6 donor
1 8 acceptor
3 6 7 13 cation
3 9 10 26 cation
5 5 8 9 18 26 rings
6 11 15 16 20 21 22 rings
6 14 17 19 23 24 25 rings

> <PUBCHEM_HEAVY_ATOM_COUNT>
27

> <PUBCHEM_ATOM_DEF_STEREO_COUNT>
0

> <PUBCHEM_ATOM_UDEF_STEREO_COUNT>
0

> <PUBCHEM_BOND_DEF_STEREO_COUNT>
0

> <PUBCHEM_BOND_UDEF_STEREO_COUNT>
0

> <PUBCHEM_ISOTOPIC_ATOM_COUNT>
0

> <PUBCHEM_COMPONENT_COUNT>
1

> <PUBCHEM_CACTVS_TAUTO_COUNT>
4

> <PUBCHEM_CONFORMER_ID>
002BC4FD0000001D

> <PUBCHEM_MMFF94_ENERGY>
89.2181

> <PUBCHEM_FEATURE_SELFOVERLAP>
45.671

> <PUBCHEM_SHAPE_FINGERPRINT>
11405975 8 18411136892820227937
12107183 9 18121499047475355481
12616971 3 17917700306643048743
12633257 1 18269562637366303345
13073987 5 18410291428930016369
13533116 47 18412822508606651393
14565420 104 17913755378612714608
14910302 57 18040145219952128349
14955137 171 18059571339910140978
15183329 4 18335138649566929245
15196674 1 18408321099570948123
17844677 252 18410858737969378753
17857418 61 18334856078793380659
20028762 73 18272644632979284967
20645477 70 18272371975142274877
20691752 17 17530677731918286482
21344244 78 17489295369955380257
22393880 68 18337400421488086895
23522609 53 17899728711620227789
23559900 14 18410855464924594305
239999 70 18413111679769260396
3004659 81 18408604738857715555
3411729 13 18270392906174145312
4073 2 18114748260606960315
4093350 32 17704353273306793618
5104073 3 18413111658927472729
513532 50 18202002157539148458
59755656 215 18411702123374954704
6823239 73 18409167709800657568
7495541 125 18334294219466181998
960060 61 17676214550127352159
9709674 26 18263365944625014627

> <PUBCHEM_SHAPE_MULTIPOLES>
516.87
15.05
2.88
1.69
28.6
0.44
0.67
-5.07
2.43
-3.4
-0.87
-3.33
-0.27
0.24

> <PUBCHEM_SHAPE_SELFOVERLAP>
1098.317

> <PUBCHEM_SHAPE_VOLUME>
290.2

> <PUBCHEM_COORDINATE_TYPE>
2
5
10

$$$$
