5347022
  -OEChem-02101610513D

 32 34  0     1  0  0  0  0  0999 V2000
    1.4509   -3.5745    0.7455 I   0  0  0  0  0  0  0  0  0  0  0  0
   -4.0575   -0.4748   -0.8912 O   0  0  0  0  0  0  0  0  0  0  0  0
   -3.1391   -1.9754    0.5583 O   0  0  0  0  0  0  0  0  0  0  0  0
   -0.6569   -1.2194   -0.0434 N   0  0  0  0  0  0  0  0  0  0  0  0
   -1.6471    0.9988   -0.3919 C   0  0  1  0  0  0  0  0  0  0  0  0
   -0.2473    1.6059   -0.6576 C   0  0  2  0  0  0  0  0  0  0  0  0
   -1.7043   -0.4875   -0.7167 C   0  0  2  0  0  0  0  0  0  0  0  0
   -1.9896    1.3923    1.0589 C   0  0  0  0  0  0  0  0  0  0  0  0
    0.8935    0.6426   -0.3890 C   0  0  0  0  0  0  0  0  0  0  0  0
   -0.2609    2.7722    0.2935 C   0  0  0  0  0  0  0  0  0  0  0  0
    0.6395   -0.7104   -0.0829 C   0  0  0  0  0  0  0  0  0  0  0  0
   -1.2070    2.6508    1.2303 C   0  0  0  0  0  0  0  0  0  0  0  0
    2.2215    1.0994   -0.4523 C   0  0  0  0  0  0  0  0  0  0  0  0
   -3.0191   -1.0773   -0.2618 C   0  0  0  0  0  0  0  0  0  0  0  0
    1.7209   -1.5515    0.2237 C   0  0  0  0  0  0  0  0  0  0  0  0
    3.2836    0.2427   -0.1694 C   0  0  0  0  0  0  0  0  0  0  0  0
    3.0330   -1.0801    0.1779 C   0  0  0  0  0  0  0  0  0  0  0  0
    4.6860    0.7461   -0.2321 C   0  0  0  0  0  0  0  0  0  0  0  0
   -2.3668    1.5240   -1.0406 H   0  0  0  0  0  0  0  0  0  0  0  0
   -0.1899    1.9471   -1.6982 H   0  0  0  0  0  0  0  0  0  0  0  0
   -1.6130   -0.6547   -1.7973 H   0  0  0  0  0  0  0  0  0  0  0  0
   -1.6752    0.6473    1.7969 H   0  0  0  0  0  0  0  0  0  0  0  0
   -3.0632    1.5728    1.1716 H   0  0  0  0  0  0  0  0  0  0  0  0
    0.4288    3.6029    0.2378 H   0  0  0  0  0  0  0  0  0  0  0  0
   -0.7691   -2.2154    0.1116 H   0  0  0  0  0  0  0  0  0  0  0  0
   -1.3711    3.3606    2.0277 H   0  0  0  0  0  0  0  0  0  0  0  0
    2.4224    2.1360   -0.7146 H   0  0  0  0  0  0  0  0  0  0  0  0
    3.8684   -1.7378    0.4078 H   0  0  0  0  0  0  0  0  0  0  0  0
    4.9921    1.1280    0.7468 H   0  0  0  0  0  0  0  0  0  0  0  0
    5.3780   -0.0484   -0.5315 H   0  0  0  0  0  0  0  0  0  0  0  0
    4.7851    1.5505   -0.9689 H   0  0  0  0  0  0  0  0  0  0  0  0
   -4.9213   -0.8440   -0.6086 H   0  0  0  0  0  0  0  0  0  0  0  0
  1 15  1  0  0  0  0
  2 14  1  0  0  0  0
  2 32  1  0  0  0  0
  3 14  2  0  0  0  0
  4  7  1  0  0  0  0
  4 11  1  0  0  0  0
  4 25  1  0  0  0  0
  5  6  1  0  0  0  0
  5  7  1  0  0  0  0
  5  8  1  0  0  0  0
  5 19  1  0  0  0  0
  6  9  1  0  0  0  0
  6 10  1  0  0  0  0
  6 20  1  0  0  0  0
  7 14  1  0  0  0  0
  7 21  1  0  0  0  0
  8 12  1  0  0  0  0
  8 22  1  0  0  0  0
  8 23  1  0  0  0  0
  9 11  2  0  0  0  0
  9 13  1  0  0  0  0
 10 12  2  0  0  0  0
 10 24  1  0  0  0  0
 11 15  1  0  0  0  0
 12 26  1  0  0  0  0
 13 16  2  0  0  0  0
 13 27  1  0  0  0  0
 15 17  2  0  0  0  0
 16 17  1  0  0  0  0
 16 18  1  0  0  0  0
 17 28  1  0  0  0  0
 18 29  1  0  0  0  0
 18 30  1  0  0  0  0
 18 31  1  0  0  0  0
M  END
> <PUBCHEM_COMPOUND_CID>
5347022

> <PUBCHEM_CONFORMER_RMSD>
0.6

> <PUBCHEM_CONFORMER_DIVERSEORDER>
1
2
3
6
7
5
4

> <PUBCHEM_MMFF94_PARTIAL_CHARGES>
23
1 -0.08
10 -0.29
11 0.1
12 -0.29
13 -0.15
14 0.66
15 0.08
16 -0.14
17 -0.15
18 0.14
2 -0.65
24 0.15
25 0.4
26 0.15
27 0.15
28 0.15
3 -0.57
32 0.5
4 -0.87
6 0.28
7 0.43
8 0.14
9 -0.14

> <PUBCHEM_EFFECTIVE_ROTOR_COUNT>
1.6

> <PUBCHEM_PHARMACOPHORE_FEATURES>
9
1 1 hydrophobe
1 2 acceptor
1 3 acceptor
1 4 cation
1 4 donor
3 2 3 14 anion
5 5 6 8 10 12 rings
6 4 5 6 7 9 11 rings
6 9 11 13 15 16 17 rings

> <PUBCHEM_HEAVY_ATOM_COUNT>
18

> <PUBCHEM_ATOM_DEF_STEREO_COUNT>
0

> <PUBCHEM_ATOM_UDEF_STEREO_COUNT>
3

> <PUBCHEM_BOND_DEF_STEREO_COUNT>
0

> <PUBCHEM_BOND_UDEF_STEREO_COUNT>
0

> <PUBCHEM_ISOTOPIC_ATOM_COUNT>
0

> <PUBCHEM_COMPONENT_COUNT>
1

> <PUBCHEM_CACTVS_TAUTO_COUNT>
1

> <PUBCHEM_CONFORMER_ID>
005196CE00000001

> <PUBCHEM_MMFF94_ENERGY>
52.0588

> <PUBCHEM_FEATURE_SELFOVERLAP>
45.954

> <PUBCHEM_SHAPE_FINGERPRINT>
104564 63 18272376343129334889
108231 29 18195811992499368338
10967382 1 18409165549627682390
1100329 8 18050006889648943818
12251169 10 17907015076044292450
12553582 1 18270671077972962495
12788726 201 17916582008575709969
13027679 85 18341047531680050757
13032168 30 18412831312904577368
13140716 1 18050854617108317675
14178342 30 18194388997399995554
14223421 5 18265052440326384822
14617773 55 18199457767046349269
14787075 74 18123184868924070348
14790565 3 18265346168660694421
15099037 8 18194110816083335162
15420108 30 15606502301718340281
15442244 35 17978508624896729970
16945 1 18049442539541270348
19591789 44 16391847890709089676
200 152 18412537734588726671
20028762 73 17767413739578579423
20510252 161 18341896311822929136
21029758 11 18271239542569264261
21069387 34 15647321993100809720
21267235 1 18410582811330674943
21501502 16 18196089945829924866
22112679 90 17987257653793895985
22445834 79 18120661223323738472
23236772 104 18411140203601501584
2334 1 18410292471678530846
23388829 49 18410860957755145397
23402539 116 18271800285088752934
23419403 2 15449923350102783575
23558518 356 18265349330072531142
23559900 14 18122044434932683754
23566358 27 18120953715118871326
2748010 2 18411411817359635492
283562 15 18411138052123573072
2871803 45 18409444778399567158
3312278 4 18409166619047749623
34934 24 18413100667562940191
352729 6 17695622957661348333
353137 74 18409162203837245502
394222 165 17386559301685577592
427121 178 16195970521670883465
43471831 8 18335417937867644658
5104073 3 18340767053525721416
5486654 2 18265336286525813852
568465 68 17972615534566128755
589210 1 18122626046228803714
6992083 37 17473539153617992330
7097593 13 17832705669392530826
74978 22 17905886972803539038
81228 2 18269845215938651113

> <PUBCHEM_SHAPE_MULTIPOLES>
365.65
5.91
3.52
0.96
1.77
1.66
-0.17
0.62
0.52
0.32
-1.11
-0.41
-0.15
-1.1

> <PUBCHEM_SHAPE_SELFOVERLAP>
777.501

> <PUBCHEM_SHAPE_VOLUME>
208.7

> <PUBCHEM_COORDINATE_TYPE>
2
5
10

$$$$
