5348294
  -OEChem-02101610513D

 38 39  0     0  0  0  0  0  0999 V2000
    3.3344   -0.7072   -2.7793 Br  0  0  0  0  0  0  0  0  0  0  0  0
    3.1632   -1.3006    2.9452 Br  0  0  0  0  0  0  0  0  0  0  0  0
    4.4958    3.6966    0.6825 Br  0  0  0  0  0  0  0  0  0  0  0  0
    4.0856    2.1376   -1.9515 O   0  0  0  0  0  0  0  0  0  0  0  0
   -1.0166   -2.9823   -0.2626 O   0  0  0  0  0  0  0  0  0  0  0  0
   -2.7824   -0.9470   -0.0858 N   0  0  0  0  0  0  0  0  0  0  0  0
    0.8079   -1.5656   -0.0565 N   0  0  0  0  0  0  0  0  0  0  0  0
    1.6983   -2.5804   -0.1387 N   0  0  0  0  0  0  0  0  0  0  0  0
   -3.8095   -0.0172   -0.0126 C   0  0  0  0  0  0  0  0  0  0  0  0
   -6.1868    0.5137   -0.0136 C   0  0  0  0  0  0  0  0  0  0  0  0
   -5.1544   -0.4213   -0.0889 C   0  0  0  0  0  0  0  0  0  0  0  0
   -1.3847   -0.6055   -0.0129 C   0  0  0  0  0  0  0  0  0  0  0  0
   -3.5310    1.3529    0.1416 C   0  0  0  0  0  0  0  0  0  0  0  0
   -5.8913    1.8683    0.1392 C   0  0  0  0  0  0  0  0  0  0  0  0
   -4.5634    2.2878    0.2169 C   0  0  0  0  0  0  0  0  0  0  0  0
   -7.6067    0.0658   -0.0968 C   0  0  0  0  0  0  0  0  0  0  0  0
    3.3064   -0.7865    0.1014 C   0  0  0  0  0  0  0  0  0  0  0  0
   -0.5435   -1.8566   -0.1279 C   0  0  0  0  0  0  0  0  0  0  0  0
    3.5186    0.0059   -1.0198 C   0  0  0  0  0  0  0  0  0  0  0  0
    3.4432   -0.2611    1.3802 C   0  0  0  0  0  0  0  0  0  0  0  0
    3.8732    1.3453   -0.8596 C   0  0  0  0  0  0  0  0  0  0  0  0
    3.7980    1.0784    1.5404 C   0  0  0  0  0  0  0  0  0  0  0  0
    2.9329   -2.2026   -0.0615 C   0  0  0  0  0  0  0  0  0  0  0  0
    4.0129    1.8815    0.4205 C   0  0  0  0  0  0  0  0  0  0  0  0
   -5.3903   -1.4774   -0.2061 H   0  0  0  0  0  0  0  0  0  0  0  0
   -3.0426   -1.9210   -0.1985 H   0  0  0  0  0  0  0  0  0  0  0  0
   -1.1512   -0.1273    0.9457 H   0  0  0  0  0  0  0  0  0  0  0  0
   -1.1056    0.0661   -0.8333 H   0  0  0  0  0  0  0  0  0  0  0  0
   -2.5113    1.7229    0.2068 H   0  0  0  0  0  0  0  0  0  0  0  0
   -6.6866    2.6065    0.2010 H   0  0  0  0  0  0  0  0  0  0  0  0
   -4.3336    3.3427    0.3365 H   0  0  0  0  0  0  0  0  0  0  0  0
   -7.9766   -0.1972    0.8991 H   0  0  0  0  0  0  0  0  0  0  0  0
   -8.2471    0.8516   -0.5117 H   0  0  0  0  0  0  0  0  0  0  0  0
   -7.7067   -0.8069   -0.7512 H   0  0  0  0  0  0  0  0  0  0  0  0
    3.9072    1.4977    2.5384 H   0  0  0  0  0  0  0  0  0  0  0  0
    3.7460   -2.9447   -0.1164 H   0  0  0  0  0  0  0  0  0  0  0  0
    1.1121   -0.6070    0.0558 H   0  0  0  0  0  0  0  0  0  0  0  0
    3.9453    1.6030   -2.7520 H   0  0  0  0  0  0  0  0  0  0  0  0
  1 19  1  0  0  0  0
  2 20  1  0  0  0  0
  3 24  1  0  0  0  0
  4 21  1  0  0  0  0
  4 38  1  0  0  0  0
  5 18  2  0  0  0  0
  6  9  1  0  0  0  0
  6 12  1  0  0  0  0
  6 26  1  0  0  0  0
  7  8  1  0  0  0  0
  7 18  1  0  0  0  0
  7 37  1  0  0  0  0
  8 23  2  0  0  0  0
  9 11  1  0  0  0  0
  9 13  2  0  0  0  0
 10 11  2  0  0  0  0
 10 14  1  0  0  0  0
 10 16  1  0  0  0  0
 11 25  1  0  0  0  0
 12 18  1  0  0  0  0
 12 27  1  0  0  0  0
 12 28  1  0  0  0  0
 13 15  1  0  0  0  0
 13 29  1  0  0  0  0
 14 15  2  0  0  0  0
 14 30  1  0  0  0  0
 15 31  1  0  0  0  0
 16 32  1  0  0  0  0
 16 33  1  0  0  0  0
 16 34  1  0  0  0  0
 17 19  2  0  0  0  0
 17 20  1  0  0  0  0
 17 23  1  0  0  0  0
 19 21  1  0  0  0  0
 20 22  2  0  0  0  0
 21 24  2  0  0  0  0
 22 24  1  0  0  0  0
 22 35  1  0  0  0  0
 23 36  1  0  0  0  0
M  END
> <PUBCHEM_COMPOUND_CID>
5348294

> <PUBCHEM_CONFORMER_RMSD>
0.8

> <PUBCHEM_CONFORMER_DIVERSEORDER>
3
29
6
35
19
37
30
34
22
8
17
9
36
28
20
31
5
23
16
32
25
7
10
18
15
21
11
14
4
12
26
24
13
2
27
33
1

> <PUBCHEM_MMFF94_PARTIAL_CHARGES>
33
1 -0.11
10 -0.14
11 -0.15
12 0.43
13 -0.15
14 -0.15
15 -0.15
16 0.14
17 0.09
18 0.57
19 0.11
2 -0.11
20 0.11
21 0.08
22 -0.15
23 0.3
24 0.11
25 0.15
26 0.4
29 0.15
3 -0.11
30 0.15
31 0.15
35 0.15
36 0.06
37 0.37
38 0.45
4 -0.53
5 -0.57
6 -0.87
7 -0.37
8 -0.51
9 0.1

> <PUBCHEM_EFFECTIVE_ROTOR_COUNT>
6

> <PUBCHEM_PHARMACOPHORE_FEATURES>
11
1 1 hydrophobe
1 2 hydrophobe
1 3 hydrophobe
1 4 donor
1 5 acceptor
1 6 cation
1 6 donor
1 7 donor
1 8 acceptor
6 17 19 20 21 22 24 rings
6 9 10 11 13 14 15 rings

> <PUBCHEM_HEAVY_ATOM_COUNT>
24

> <PUBCHEM_ATOM_DEF_STEREO_COUNT>
0

> <PUBCHEM_ATOM_UDEF_STEREO_COUNT>
0

> <PUBCHEM_BOND_DEF_STEREO_COUNT>
1

> <PUBCHEM_BOND_UDEF_STEREO_COUNT>
0

> <PUBCHEM_ISOTOPIC_ATOM_COUNT>
0

> <PUBCHEM_COMPONENT_COUNT>
1

> <PUBCHEM_CACTVS_TAUTO_COUNT>
9

> <PUBCHEM_CONFORMER_ID>
00519BC600000003

> <PUBCHEM_MMFF94_ENERGY>
81.1614

> <PUBCHEM_FEATURE_SELFOVERLAP>
55.825

> <PUBCHEM_SHAPE_FINGERPRINT>
10042902 136 9222138961167972648
10498660 4 18200039572127720426
10670039 82 18268160772393300676
11720765 8 17916600726533114662
12596602 18 17385725816179248899
12633257 1 15502654961719731728
12925494 130 17978785715208359633
13533116 47 16443342014694322387
13561361 72 17678732333024213197
13965767 371 18114731716477390390
14251764 75 18191866940716893700
14528608 73 18342459223227042423
14537116 161 17060621075744332169
14848178 96 18343022172726848081
15142526 21 17460323367660492000
15183329 4 8574425440316175555
17810953 82 18410291397963158488
17844677 252 18201162032018985851
20567600 234 16370733647293835919
20691028 202 17696472885199961689
21315764 268 18335413509703238285
22149856 69 18201446844655057419
23559900 14 18269836406792571507
239999 70 18131073714640563476
245318 6 17823997812030986821
3472631 163 18270679886792195852
34797466 226 17917717898734069621
38570 142 17459772452648215060
513532 50 18059860541437994158
53794403 172 18339929340881380028
57359948 33 11887667347526671515
5951187 136 18272375312680445804
59682541 52 16128377022077225293
7808743 9 18196929088092538968
8988823 20 14273742879849410231
960060 61 11887665208453122123
9849439 229 18264767838819217560

> <PUBCHEM_SHAPE_MULTIPOLES>
485.05
16.36
3.35
1.92
32.16
1.42
-0.03
9.59
-0.06
-3.56
-0.25
-4.37
-0.53
-0.33

> <PUBCHEM_SHAPE_SELFOVERLAP>
984.865

> <PUBCHEM_SHAPE_VOLUME>
290.6

> <PUBCHEM_COORDINATE_TYPE>
2
5
10

$$$$
