2906609
  -OEChem-02101610523D

 30 31  0     0  0  0  0  0  0999 V2000
    1.9080   -0.2697   -2.4583 Cl  0  0  0  0  0  0  0  0  0  0  0  0
   -1.6172    2.1586    0.1737 O   0  0  0  0  0  0  0  0  0  0  0  0
    0.5037    1.0672    1.3411 O   0  0  0  0  0  0  0  0  0  0  0  0
   -4.2636    1.7118   -0.4477 O   0  0  0  0  0  0  0  0  0  0  0  0
   -5.2541   -0.8732   -0.4897 O   0  0  0  0  0  0  0  0  0  0  0  0
    1.1742   -1.0624    0.4290 C   0  0  0  0  0  0  0  0  0  0  0  0
   -1.2667   -0.1928    0.4463 C   0  0  0  0  0  0  0  0  0  0  0  0
    2.5623   -0.5277    0.1750 C   0  0  0  0  0  0  0  0  0  0  0  0
    0.1363    0.0175    0.7764 C   0  0  0  0  0  0  0  0  0  0  0  0
   -2.1034    0.8841    0.1534 C   0  0  0  0  0  0  0  0  0  0  0  0
   -1.7702   -1.4935    0.4243 C   0  0  0  0  0  0  0  0  0  0  0  0
    2.9640   -0.1505   -1.0984 C   0  0  0  0  0  0  0  0  0  0  0  0
    3.4252   -0.4248    1.2573 C   0  0  0  0  0  0  0  0  0  0  0  0
   -3.4438    0.6603   -0.1616 C   0  0  0  0  0  0  0  0  0  0  0  0
   -3.1103   -1.7173    0.1094 C   0  0  0  0  0  0  0  0  0  0  0  0
   -3.9472   -0.6406   -0.1837 C   0  0  0  0  0  0  0  0  0  0  0  0
    4.2552    0.3399   -1.2940 C   0  0  0  0  0  0  0  0  0  0  0  0
    4.7164    0.0655    1.0616 C   0  0  0  0  0  0  0  0  0  0  0  0
    5.1313    0.4477   -0.2140 C   0  0  0  0  0  0  0  0  0  0  0  0
    0.8364   -1.6584   -0.4251 H   0  0  0  0  0  0  0  0  0  0  0  0
    1.2049   -1.7593    1.2775 H   0  0  0  0  0  0  0  0  0  0  0  0
   -1.1500   -2.3523    0.6648 H   0  0  0  0  0  0  0  0  0  0  0  0
    3.1140   -0.7164    2.2566 H   0  0  0  0  0  0  0  0  0  0  0  0
   -3.4907   -2.7354    0.0996 H   0  0  0  0  0  0  0  0  0  0  0  0
    4.5940    0.6422   -2.2817 H   0  0  0  0  0  0  0  0  0  0  0  0
    5.3984    0.1503    1.9025 H   0  0  0  0  0  0  0  0  0  0  0  0
    6.1366    0.8296   -0.3661 H   0  0  0  0  0  0  0  0  0  0  0  0
   -2.3410    2.7676   -0.0542 H   0  0  0  0  0  0  0  0  0  0  0  0
   -5.1520    1.3650   -0.6408 H   0  0  0  0  0  0  0  0  0  0  0  0
   -5.4220   -1.8306   -0.4559 H   0  0  0  0  0  0  0  0  0  0  0  0
  1 12  1  0  0  0  0
  2 10  1  0  0  0  0
  2 28  1  0  0  0  0
  3  9  2  0  0  0  0
  4 14  1  0  0  0  0
  4 29  1  0  0  0  0
  5 16  1  0  0  0  0
  5 30  1  0  0  0  0
  6  8  1  0  0  0  0
  6  9  1  0  0  0  0
  6 20  1  0  0  0  0
  6 21  1  0  0  0  0
  7  9  1  0  0  0  0
  7 10  2  0  0  0  0
  7 11  1  0  0  0  0
  8 12  1  0  0  0  0
  8 13  2  0  0  0  0
 10 14  1  0  0  0  0
 11 15  2  0  0  0  0
 11 22  1  0  0  0  0
 12 17  2  0  0  0  0
 13 18  1  0  0  0  0
 13 23  1  0  0  0  0
 14 16  2  0  0  0  0
 15 16  1  0  0  0  0
 15 24  1  0  0  0  0
 17 19  1  0  0  0  0
 17 25  1  0  0  0  0
 18 19  2  0  0  0  0
 18 26  1  0  0  0  0
 19 27  1  0  0  0  0
M  END
> <PUBCHEM_COMPOUND_CID>
2906609

> <PUBCHEM_CONFORMER_RMSD>
0.6

> <PUBCHEM_CONFORMER_DIVERSEORDER>
1
82
80
89
90
59
63
9
26
58
27
18
45
60
25
34
10
55
4
64
19
13
15
20
61
56
54
88
31
24
14
62
17
51
46
81
44
12
42
28
21
7
32
57
33
8
71
73
79
72
84
16
85
86
83
11
77
65
68
87
76
91
43
41
53
3
47
22
48
37
66
36
75
38
6
39
29
35
5
30
40
67
70
2
69
49
74
78
23
52
50

> <PUBCHEM_MMFF94_PARTIAL_CHARGES>
28
1 -0.18
10 0.08
11 -0.15
12 0.18
13 -0.15
14 0.08
15 -0.15
16 0.08
17 -0.15
18 -0.15
19 -0.15
2 -0.53
22 0.15
23 0.15
24 0.15
25 0.15
26 0.15
27 0.15
28 0.45
29 0.45
3 -0.57
30 0.45
4 -0.53
5 -0.53
6 0.2
7 0.09
8 -0.14
9 0.42

> <PUBCHEM_EFFECTIVE_ROTOR_COUNT>
3

> <PUBCHEM_PHARMACOPHORE_FEATURES>
6
1 2 donor
1 3 acceptor
1 4 donor
1 5 donor
6 7 10 11 14 15 16 rings
6 8 12 13 17 18 19 rings

> <PUBCHEM_HEAVY_ATOM_COUNT>
19

> <PUBCHEM_ATOM_DEF_STEREO_COUNT>
0

> <PUBCHEM_ATOM_UDEF_STEREO_COUNT>
0

> <PUBCHEM_BOND_DEF_STEREO_COUNT>
0

> <PUBCHEM_BOND_UDEF_STEREO_COUNT>
0

> <PUBCHEM_ISOTOPIC_ATOM_COUNT>
0

> <PUBCHEM_COMPONENT_COUNT>
1

> <PUBCHEM_CACTVS_TAUTO_COUNT>
45

> <PUBCHEM_CONFORMER_ID>
002C59F100000001

> <PUBCHEM_MMFF94_ENERGY>
52.252

> <PUBCHEM_FEATURE_SELFOVERLAP>
30.455

> <PUBCHEM_SHAPE_FINGERPRINT>
10062212 137 17676491674069992235
10498660 4 18411419475244333836
11089746 13 17676776461421400676
12173636 292 18265891355056069437
12236239 1 17603299362726317571
12403814 3 17313100831007209349
12507557 5 15792018912721346196
128620 24 17847064380649191820
13134695 92 15864067694019373494
13675066 3 12396302564775313650
14386348 63 17632581564792029766
14739800 52 18190456263784179240
14790565 3 17909553848731477065
15295992 7 13479141223681043839
15375358 24 17704069581778791870
15635459 17 17561089102709269134
15788980 27 18113620071160886242
15848702 151 16732978691660851666
15961568 22 18266735960702823784
16988056 13 15163747630567057885
17349148 13 17530686506826486154
192875 21 16950003634141204564
19489759 90 18408884040406959634
200 152 17458341965691339315
20279233 1 17918277553952079082
20511986 3 17749655376963731588
20645477 70 16702310018549479310
20715895 44 17389367235318844269
20871999 31 18408881841715941925
21033650 10 18191609478859513548
21079973 296 18202282541198650498
21618674 57 12540686024977171068
23175994 123 17060338556736556177
23402539 116 18335412461230077620
23557571 272 18201446865037876556
23559900 14 18270965640084126614
23596394 208 17346325847552903790
2838139 119 16081909457611776159
2871803 45 16343709794360429350
3004659 81 18335698278989015098
3268164 11 18412536605081016621
3472631 163 18335987488821985413
34797466 226 18201448025064194596
474 4 16515409590162158602
542803 24 17749390364622981666
573450 72 18186511107807958186
57724786 102 14490769952549243542
9971528 1 17022901234136484134

> <PUBCHEM_SHAPE_MULTIPOLES>
369.4
10.61
1.48
1.43
0.32
0.13
-0.41
0.89
-0.81
-0.9
0
0.84
0.38
-1.51

> <PUBCHEM_SHAPE_SELFOVERLAP>
792.854

> <PUBCHEM_SHAPE_VOLUME>
204.2

> <PUBCHEM_COORDINATE_TYPE>
2
5
10

$$$$
