155493
  -OEChem-02101610533D

 42 44  0     0  0  0  0  0  0999 V2000
    0.4886   -0.2852   -0.1236 O   0  0  0  0  0  0  0  0  0  0  0  0
   -1.1278   -2.4549   -0.2732 O   0  0  0  0  0  0  0  0  0  0  0  0
   -3.8682   -2.1740   -0.2278 O   0  0  0  0  0  0  0  0  0  0  0  0
   -5.0004    0.3286   -0.0273 O   0  0  0  0  0  0  0  0  0  0  0  0
   -3.4268    2.5519    0.1271 O   0  0  0  0  0  0  0  0  0  0  0  0
   -0.9945    3.4971    0.1801 O   0  0  0  0  0  0  0  0  0  0  0  0
    4.9926   -2.2445    0.8851 O   0  0  0  0  0  0  0  0  0  0  0  0
    6.8137   -0.4322   -0.1757 O   0  0  0  0  0  0  0  0  0  0  0  0
   -1.4417    1.1834    0.0050 C   0  0  0  0  0  0  0  0  0  0  0  0
   -0.8680   -0.0828   -0.0965 C   0  0  0  0  0  0  0  0  0  0  0  0
   -1.6821   -1.2129   -0.1745 C   0  0  0  0  0  0  0  0  0  0  0  0
   -2.8306    1.3299    0.0290 C   0  0  0  0  0  0  0  0  0  0  0  0
    1.3229    0.8201   -0.0540 C   0  0  0  0  0  0  0  0  0  0  0  0
   -3.0698   -1.0709   -0.1510 C   0  0  0  0  0  0  0  0  0  0  0  0
   -3.6426    0.1978   -0.0494 C   0  0  0  0  0  0  0  0  0  0  0  0
   -0.5597    2.3576    0.0875 C   0  0  0  0  0  0  0  0  0  0  0  0
    0.8917    2.0870    0.0524 C   0  0  0  0  0  0  0  0  0  0  0  0
    2.7617    0.4886   -0.0844 C   0  0  0  0  0  0  0  0  0  0  0  0
    3.2111   -0.7347    0.4190 C   0  0  0  0  0  0  0  0  0  0  0  0
    3.6802    1.3971   -0.6166 C   0  0  0  0  0  0  0  0  0  0  0  0
    4.5701   -1.0476    0.3903 C   0  0  0  0  0  0  0  0  0  0  0  0
    5.0391    1.0843   -0.6452 C   0  0  0  0  0  0  0  0  0  0  0  0
    5.4841   -0.1382   -0.1417 C   0  0  0  0  0  0  0  0  0  0  0  0
   -0.8534   -3.1396    0.9468 C   0  0  0  0  0  0  0  0  0  0  0  0
   -4.2583   -2.6002   -1.5310 C   0  0  0  0  0  0  0  0  0  0  0  0
   -5.6320    0.2945    1.2499 C   0  0  0  0  0  0  0  0  0  0  0  0
    1.5454    2.9474    0.1345 H   0  0  0  0  0  0  0  0  0  0  0  0
    2.5170   -1.4554    0.8460 H   0  0  0  0  0  0  0  0  0  0  0  0
    3.3717    2.3498   -1.0388 H   0  0  0  0  0  0  0  0  0  0  0  0
    5.7401    1.7996   -1.0670 H   0  0  0  0  0  0  0  0  0  0  0  0
   -2.7625    3.2559    0.1749 H   0  0  0  0  0  0  0  0  0  0  0  0
   -1.7765   -3.3075    1.5105 H   0  0  0  0  0  0  0  0  0  0  0  0
   -0.1401   -2.5743    1.5549 H   0  0  0  0  0  0  0  0  0  0  0  0
   -0.4118   -4.1097    0.7029 H   0  0  0  0  0  0  0  0  0  0  0  0
   -3.3806   -2.8647   -2.1291 H   0  0  0  0  0  0  0  0  0  0  0  0
   -4.8349   -1.8188   -2.0359 H   0  0  0  0  0  0  0  0  0  0  0  0
   -4.8893   -3.4871   -1.4264 H   0  0  0  0  0  0  0  0  0  0  0  0
   -5.4513   -0.6655    1.7439 H   0  0  0  0  0  0  0  0  0  0  0  0
   -6.7089    0.4136    1.1026 H   0  0  0  0  0  0  0  0  0  0  0  0
   -5.2730    1.1140    1.8805 H   0  0  0  0  0  0  0  0  0  0  0  0
    5.9592   -2.2928    0.7848 H   0  0  0  0  0  0  0  0  0  0  0  0
    7.2928    0.3129   -0.5772 H   0  0  0  0  0  0  0  0  0  0  0  0
  1 10  1  0  0  0  0
  1 13  1  0  0  0  0
  2 11  1  0  0  0  0
  2 24  1  0  0  0  0
  3 14  1  0  0  0  0
  3 25  1  0  0  0  0
  4 15  1  0  0  0  0
  4 26  1  0  0  0  0
  5 12  1  0  0  0  0
  5 31  1  0  0  0  0
  6 16  2  0  0  0  0
  7 21  1  0  0  0  0
  7 41  1  0  0  0  0
  8 23  1  0  0  0  0
  8 42  1  0  0  0  0
  9 10  1  0  0  0  0
  9 12  2  0  0  0  0
  9 16  1  0  0  0  0
 10 11  2  0  0  0  0
 11 14  1  0  0  0  0
 12 15  1  0  0  0  0
 13 17  2  0  0  0  0
 13 18  1  0  0  0  0
 14 15  2  0  0  0  0
 16 17  1  0  0  0  0
 17 27  1  0  0  0  0
 18 19  2  0  0  0  0
 18 20  1  0  0  0  0
 19 21  1  0  0  0  0
 19 28  1  0  0  0  0
 20 22  2  0  0  0  0
 20 29  1  0  0  0  0
 21 23  2  0  0  0  0
 22 23  1  0  0  0  0
 22 30  1  0  0  0  0
 24 32  1  0  0  0  0
 24 33  1  0  0  0  0
 24 34  1  0  0  0  0
 25 35  1  0  0  0  0
 25 36  1  0  0  0  0
 25 37  1  0  0  0  0
 26 38  1  0  0  0  0
 26 39  1  0  0  0  0
 26 40  1  0  0  0  0
M  END
> <PUBCHEM_COMPOUND_CID>
155493

> <PUBCHEM_CONFORMER_RMSD>
0.8

> <PUBCHEM_CONFORMER_DIVERSEORDER>
2
5
1
6
4
3

> <PUBCHEM_MMFF94_PARTIAL_CHARGES>
33
1 -0.16
10 0.08
11 0.08
12 0.08
13 0.05
14 0.08
15 0.08
16 0.47
17 -0.14
18 0.03
19 -0.15
2 -0.36
20 -0.15
21 0.08
22 -0.15
23 0.08
24 0.28
25 0.28
26 0.28
27 0.15
28 0.15
29 0.15
3 -0.36
30 0.15
31 0.45
4 -0.36
41 0.45
42 0.45
5 -0.53
6 -0.57
7 -0.53
8 -0.53
9 0.09

> <PUBCHEM_EFFECTIVE_ROTOR_COUNT>
4

> <PUBCHEM_PHARMACOPHORE_FEATURES>
11
1 1 acceptor
1 2 acceptor
1 3 acceptor
1 4 acceptor
1 5 donor
1 6 acceptor
1 7 donor
1 8 donor
6 1 9 10 13 16 17 rings
6 18 19 20 21 22 23 rings
6 9 10 11 12 14 15 rings

> <PUBCHEM_HEAVY_ATOM_COUNT>
26

> <PUBCHEM_ATOM_DEF_STEREO_COUNT>
0

> <PUBCHEM_ATOM_UDEF_STEREO_COUNT>
0

> <PUBCHEM_BOND_DEF_STEREO_COUNT>
0

> <PUBCHEM_BOND_UDEF_STEREO_COUNT>
0

> <PUBCHEM_ISOTOPIC_ATOM_COUNT>
0

> <PUBCHEM_COMPONENT_COUNT>
1

> <PUBCHEM_CACTVS_TAUTO_COUNT>
43

> <PUBCHEM_CONFORMER_ID>
00025F6500000002

> <PUBCHEM_MMFF94_ENERGY>
110.1648

> <PUBCHEM_FEATURE_SELFOVERLAP>
55.871

> <PUBCHEM_SHAPE_FINGERPRINT>
10411042 1 18196370540786966767
10595046 47 18408604794892919492
10616163 171 18410858776544976142
10693767 8 17554024925913098175
10906281 52 18269858512851288652
1100329 8 18339646737002873753
11045515 52 18113615690073510660
12107183 9 17759518872865478952
12236239 1 17967536761360738532
12553582 1 18337099146627349384
12633257 1 18130797762685859817
12788726 201 18340207380173794096
13140716 1 18268436896779419489
13167823 11 18335138683341111426
13540713 5 17984150529003187285
13862211 1 18412261740338451581
14790565 3 18338806598266019457
14866123 147 18412266164361014627
15042514 8 18337114591815425755
15196674 1 18339642342639159716
15250474 111 18336253605333521610
17492 89 17837204141045520023
17857418 61 18408599262901020170
18681886 176 18413105096454723040
19141452 34 18202005447404982463
19591789 44 18409165515325576635
20775438 99 16759968700221000159
21267235 1 18408613551824775240
22950370 63 18410294743568322888
23402539 116 18343016718176339559
23522609 53 18123219958644374505
23559900 14 18340481279176581176
3004659 81 18259700121313023030
3178227 256 18337126631030405857
335352 9 18411980270020906829
350125 39 18336547122928719913
4073 2 18115031917817512362
4214541 1 18410012117962701468
5104073 3 18271245035647469465
559249 180 18262796264315279042
59755656 215 18340770329942488543
6138700 20 18410856555593151487
67856867 119 18334857256063423436
7226269 152 17774727467793078265
9709674 26 18051690241913983129

> <PUBCHEM_SHAPE_MULTIPOLES>
488.11
12.71
3.24
0.87
10.88
0.2
0.04
3.35
-0.07
-2.15
-0.13
-0.52
0.39
-1.57

> <PUBCHEM_SHAPE_SELFOVERLAP>
1075.018

> <PUBCHEM_SHAPE_VOLUME>
263.3

> <PUBCHEM_COORDINATE_TYPE>
2
5
10

$$$$
