789242
  -OEChem-02101610443D

 28 31  0     0  0  0  0  0  0999 V2000
   -3.4571    2.3655   -0.0002 O   0  0  0  0  0  0  0  0  0  0  0  0
    3.4569    2.3656    0.0002 O   0  0  0  0  0  0  0  0  0  0  0  0
   -3.4569   -2.3656    0.0009 O   0  0  0  0  0  0  0  0  0  0  0  0
    3.4570   -2.3654   -0.0017 O   0  0  0  0  0  0  0  0  0  0  0  0
   -0.7130    0.0000    0.0003 C   0  0  0  0  0  0  0  0  0  0  0  0
    0.7131    0.0000    0.0004 C   0  0  0  0  0  0  0  0  0  0  0  0
   -1.3921    1.2348    0.0001 C   0  0  0  0  0  0  0  0  0  0  0  0
    1.3920    1.2348    0.0004 C   0  0  0  0  0  0  0  0  0  0  0  0
   -1.3921   -1.2348    0.0005 C   0  0  0  0  0  0  0  0  0  0  0  0
    1.3921   -1.2348    0.0002 C   0  0  0  0  0  0  0  0  0  0  0  0
   -3.6399   -0.0001   -0.0018 C   0  0  0  0  0  0  0  0  0  0  0  0
    3.6398    0.0000    0.0005 C   0  0  0  0  0  0  0  0  0  0  0  0
   -2.8704    1.2857   -0.0005 C   0  0  0  0  0  0  0  0  0  0  0  0
    2.8704    1.2858    0.0001 C   0  0  0  0  0  0  0  0  0  0  0  0
   -2.8704   -1.2857    0.0002 C   0  0  0  0  0  0  0  0  0  0  0  0
    2.8704   -1.2857   -0.0006 C   0  0  0  0  0  0  0  0  0  0  0  0
   -0.6938    2.4458    0.0001 C   0  0  0  0  0  0  0  0  0  0  0  0
    0.6937    2.4458    0.0002 C   0  0  0  0  0  0  0  0  0  0  0  0
   -0.6937   -2.4458    0.0006 C   0  0  0  0  0  0  0  0  0  0  0  0
    0.6938   -2.4458    0.0004 C   0  0  0  0  0  0  0  0  0  0  0  0
   -4.2742    0.0002    0.8919 H   0  0  0  0  0  0  0  0  0  0  0  0
   -4.2708   -0.0003   -0.8979 H   0  0  0  0  0  0  0  0  0  0  0  0
    4.2732    0.0003   -0.8938 H   0  0  0  0  0  0  0  0  0  0  0  0
    4.2716   -0.0002    0.8960 H   0  0  0  0  0  0  0  0  0  0  0  0
   -1.2122    3.4009   -0.0002 H   0  0  0  0  0  0  0  0  0  0  0  0
    1.2120    3.4010    0.0001 H   0  0  0  0  0  0  0  0  0  0  0  0
   -1.2120   -3.4010    0.0006 H   0  0  0  0  0  0  0  0  0  0  0  0
    1.2122   -3.4009    0.0003 H   0  0  0  0  0  0  0  0  0  0  0  0
  1 13  2  0  0  0  0
  2 14  2  0  0  0  0
  3 15  2  0  0  0  0
  4 16  2  0  0  0  0
  5  6  1  0  0  0  0
  5  7  2  0  0  0  0
  5  9  1  0  0  0  0
  6  8  2  0  0  0  0
  6 10  1  0  0  0  0
  7 13  1  0  0  0  0
  7 17  1  0  0  0  0
  8 14  1  0  0  0  0
  8 18  1  0  0  0  0
  9 15  1  0  0  0  0
  9 19  2  0  0  0  0
 10 16  1  0  0  0  0
 10 20  2  0  0  0  0
 11 13  1  0  0  0  0
 11 15  1  0  0  0  0
 11 21  1  0  0  0  0
 11 22  1  0  0  0  0
 12 14  1  0  0  0  0
 12 16  1  0  0  0  0
 12 23  1  0  0  0  0
 12 24  1  0  0  0  0
 17 18  2  0  0  0  0
 17 25  1  0  0  0  0
 18 26  1  0  0  0  0
 19 20  1  0  0  0  0
 19 27  1  0  0  0  0
 20 28  1  0  0  0  0
M  END
> <PUBCHEM_COMPOUND_CID>
789242

> <PUBCHEM_CONFORMER_RMSD>
0.6

> <PUBCHEM_CONFORMER_DIVERSEORDER>
1

> <PUBCHEM_MMFF94_PARTIAL_CHARGES>
22
1 -0.57
10 0.09
11 0.12
12 0.12
13 0.42
14 0.42
15 0.42
16 0.42
17 -0.15
18 -0.15
19 -0.15
2 -0.57
20 -0.15
25 0.15
26 0.15
27 0.15
28 0.15
3 -0.57
4 -0.57
7 0.09
8 0.09
9 0.09

> <PUBCHEM_EFFECTIVE_ROTOR_COUNT>
0.4

> <PUBCHEM_PHARMACOPHORE_FEATURES>
10
1 1 acceptor
1 11 anion
1 12 anion
1 2 acceptor
1 3 acceptor
1 4 acceptor
6 5 6 7 8 17 18 rings
6 5 6 9 10 19 20 rings
6 5 7 9 11 13 15 rings
6 6 8 10 12 14 16 rings

> <PUBCHEM_HEAVY_ATOM_COUNT>
20

> <PUBCHEM_ATOM_DEF_STEREO_COUNT>
0

> <PUBCHEM_ATOM_UDEF_STEREO_COUNT>
0

> <PUBCHEM_BOND_DEF_STEREO_COUNT>
0

> <PUBCHEM_BOND_UDEF_STEREO_COUNT>
0

> <PUBCHEM_ISOTOPIC_ATOM_COUNT>
0

> <PUBCHEM_COMPONENT_COUNT>
1

> <PUBCHEM_CACTVS_TAUTO_COUNT>
4

> <PUBCHEM_CONFORMER_ID>
000C0AFA00000001

> <PUBCHEM_MMFF94_ENERGY>
55.2322

> <PUBCHEM_FEATURE_SELFOVERLAP>
50.861

> <PUBCHEM_SHAPE_FINGERPRINT>
10411042 1 18410575084663936387
10608611 8 18410572885640024736
10616163 171 18411703209426278012
10863032 1 18411982459546742685
10967382 1 18410575131923543428
1100329 8 16320904509670817944
11132069 177 18339073783463672776
11578080 2 17273674628989328065
11680986 33 18410013225641926392
12553582 1 18051127287401902391
13132413 78 18340207482989160781
13140716 1 18410573942201778560
14178342 30 18338785836230281696
14223421 5 18338517550759974411
14790565 3 17835819494944442952
15196674 1 18410855460128161793
15442244 35 18338797814761765874
15536298 74 18342457041135606016
16945 1 18410855464423129094
17492 89 18410574002337634523
193761 8 18410573989446418437
19591789 44 18410577287981691523
20510252 161 18271248351520860401
20739085 24 18119839978432966585
20905425 154 18341618173603173966
21267235 1 18410583880756484390
21501502 16 18410575088958046212
221490 88 18409174315729741122
2334 1 18410855494487900167
23366157 5 18113337514263704502
23463225 33 18409448072560186180
23558518 356 18261116300536752267
23559900 14 18270396080286592070
238 59 17322911635765223949
2748010 2 18410855464423129199
335352 9 18194402177995243973
350125 39 18410016541351404057
5104073 3 18410856551049855952
7364860 26 18413389839099660160
7832392 63 18339358548374970835
8809292 202 18262805046964522611
9709674 26 18341334396482164862

> <PUBCHEM_SHAPE_MULTIPOLES>
388.11
6.13
3.39
0.6
0
0
0
0
0
0
0
0
0
0

> <PUBCHEM_SHAPE_SELFOVERLAP>
896.575

> <PUBCHEM_SHAPE_VOLUME>
197.6

> <PUBCHEM_COORDINATE_TYPE>
2
5
10

$$$$
