5756448
  -OEChem-02101610493D

 26 27  0     0  0  0  0  0  0999 V2000
   -1.4002    2.9520    0.0037 Cl  0  0  0  0  0  0  0  0  0  0  0  0
   -4.6068    2.6431   -0.0052 Cl  0  0  0  0  0  0  0  0  0  0  0  0
   -4.0336   -2.7866   -0.0006 Cl  0  0  0  0  0  0  0  0  0  0  0  0
    6.7558    1.0470   -0.0011 Cl  0  0  0  0  0  0  0  0  0  0  0  0
    0.8613   -1.0504    0.0014 S   0  0  0  0  0  0  0  0  0  0  0  0
    0.7056   -1.7568   -1.2574 O   0  0  0  0  0  0  0  0  0  0  0  0
    0.6606   -1.7442    1.2613 O   0  0  0  0  0  0  0  0  0  0  0  0
   -5.4058   -0.1705   -0.0054 O   0  0  0  0  0  0  0  0  0  0  0  0
   -0.0145    0.3232    0.0015 N   0  0  0  0  0  0  0  0  0  0  0  0
    2.5306   -0.4583    0.0008 C   0  0  0  0  0  0  0  0  0  0  0  0
   -1.3071    0.2178    0.0019 C   0  0  0  0  0  0  0  0  0  0  0  0
    3.1644   -0.2334    1.2084 C   0  0  0  0  0  0  0  0  0  0  0  0
    3.1630   -0.2325   -1.2076 C   0  0  0  0  0  0  0  0  0  0  0  0
   -2.1962    1.4133    0.0006 C   0  0  0  0  0  0  0  0  0  0  0  0
   -1.9626   -1.1088    0.0023 C   0  0  0  0  0  0  0  0  0  0  0  0
    4.4785    0.2343    1.2078 C   0  0  0  0  0  0  0  0  0  0  0  0
    4.4772    0.2352   -1.2083 C   0  0  0  0  0  0  0  0  0  0  0  0
   -3.5299    1.2873   -0.0016 C   0  0  0  0  0  0  0  0  0  0  0  0
   -3.2908   -1.2308    0.0002 C   0  0  0  0  0  0  0  0  0  0  0  0
    5.1350    0.4686   -0.0005 C   0  0  0  0  0  0  0  0  0  0  0  0
   -4.1844   -0.0494   -0.0024 C   0  0  0  0  0  0  0  0  0  0  0  0
    2.6676   -0.4018    2.1587 H   0  0  0  0  0  0  0  0  0  0  0  0
    2.6660   -0.3983   -2.1582 H   0  0  0  0  0  0  0  0  0  0  0  0
   -1.4073   -2.0355   -0.0011 H   0  0  0  0  0  0  0  0  0  0  0  0
    4.9780    0.4138    2.1564 H   0  0  0  0  0  0  0  0  0  0  0  0
    4.9755    0.4157   -2.1573 H   0  0  0  0  0  0  0  0  0  0  0  0
  1 14  1  0  0  0  0
  2 18  1  0  0  0  0
  3 19  1  0  0  0  0
  4 20  1  0  0  0  0
  5  6  2  0  0  0  0
  5  7  2  0  0  0  0
  5  9  1  0  0  0  0
  5 10  1  0  0  0  0
  8 21  2  0  0  0  0
  9 11  2  0  0  0  0
 10 12  2  0  0  0  0
 10 13  1  0  0  0  0
 11 14  1  0  0  0  0
 11 15  1  0  0  0  0
 12 16  1  0  0  0  0
 12 22  1  0  0  0  0
 13 17  2  0  0  0  0
 13 23  1  0  0  0  0
 14 18  2  0  0  0  0
 15 19  2  0  0  0  0
 15 24  1  0  0  0  0
 16 20  2  0  0  0  0
 16 25  1  0  0  0  0
 17 20  1  0  0  0  0
 17 26  1  0  0  0  0
 18 21  1  0  0  0  0
 19 21  1  0  0  0  0
M  END
> <PUBCHEM_COMPOUND_CID>
5756448

> <PUBCHEM_CONFORMER_RMSD>
0.6

> <PUBCHEM_CONFORMER_DIVERSEORDER>
1

> <PUBCHEM_MMFF94_PARTIAL_CHARGES>
26
1 -0.14
10 -0.01
11 0.42
12 -0.15
13 -0.15
14 0.15
15 -0.14
16 -0.15
17 -0.15
18 0.15
19 0.15
2 -0.14
20 0.18
21 0.54
22 0.15
23 0.15
24 0.15
25 0.15
26 0.15
3 -0.14
4 -0.18
5 1.5
6 -0.65
7 -0.65
8 -0.57
9 -0.64

> <PUBCHEM_EFFECTIVE_ROTOR_COUNT>
2

> <PUBCHEM_PHARMACOPHORE_FEATURES>
7
1 6 acceptor
1 7 acceptor
1 8 acceptor
1 9 acceptor
1 9 donor
6 10 12 13 16 17 20 rings
6 11 14 15 18 19 21 rings

> <PUBCHEM_HEAVY_ATOM_COUNT>
21

> <PUBCHEM_ATOM_DEF_STEREO_COUNT>
0

> <PUBCHEM_ATOM_UDEF_STEREO_COUNT>
0

> <PUBCHEM_BOND_DEF_STEREO_COUNT>
1

> <PUBCHEM_BOND_UDEF_STEREO_COUNT>
0

> <PUBCHEM_ISOTOPIC_ATOM_COUNT>
0

> <PUBCHEM_COMPONENT_COUNT>
1

> <PUBCHEM_CACTVS_TAUTO_COUNT>
1

> <PUBCHEM_CONFORMER_ID>
0057D62000000001

> <PUBCHEM_MMFF94_ENERGY>
46.544

> <PUBCHEM_FEATURE_SELFOVERLAP>
35.574

> <PUBCHEM_SHAPE_FINGERPRINT>
10319926 262 18269254821566286778
10366900 7 17917699181055707369
10411042 1 18050568749261596123
10498660 4 18341050714018838392
10670039 82 18262811666247773460
10730089 173 18411419523179947120
10912923 1 17822005428425971970
11578080 2 13756977809754012985
12107183 9 17612298659510110522
12173636 292 18122621657247065701
12236239 1 17749104491499624146
12390115 104 18129672872724280793
12403259 415 17774716554544442224
12596602 18 17313103081491074808
12616971 3 17095248020632152628
12730499 353 17489873756638493182
12788726 201 17245572314364647594
12916748 109 18410296904643754528
13402501 40 18201715180762755096
13533116 47 17749660823483566298
14341114 328 18186516596865612248
14739800 52 18190734431636026696
14787075 74 18114461279028703194
15196674 1 18338516339610897381
16087824 20 18411134729158686167
16988056 13 15090273869815840917
17349148 13 17530967994503742082
17980427 23 18113904883110934676
18186145 218 16415472766627278954
19489759 90 18334011717881654186
19784866 170 18343303656478226351
200 152 16298378072028866774
20510252 161 18199468762785269009
20511986 3 17676753315083032181
20645477 56 17774717658314204558
20645477 70 16630253511185691790
21033648 29 17560788936018835056
21065198 48 18186794764955115722
2297311 6 18343311374207286293
23402539 116 18335416910937833934
23557571 272 18272379650291024437
23559900 14 18198065785442045622
26918003 58 13334736834314711812
2916195 48 18343015632124860384
335352 9 18410569618419879741
34797466 226 17917437552848837788
34934 24 18336542712519130561
351380 180 18409167731876945292
3545911 37 18342178847303003950
4340502 62 16443922544344745969
474 4 17530973474997724932
5104073 3 18264213517375830483
59755656 520 18186516631679706594
67856867 119 18115310123612493580
7808743 9 18337670819564838656
9981440 41 18186807962936254507

> <PUBCHEM_SHAPE_MULTIPOLES>
420.91
13.29
2.55
1.01
11.11
0.66
0
3.37
-0.02
-4.28
0
1.16
-0.2
0

> <PUBCHEM_SHAPE_SELFOVERLAP>
856.365

> <PUBCHEM_SHAPE_VOLUME>
247.4

> <PUBCHEM_COORDINATE_TYPE>
2
5
10

$$$$
