1358448
  -OEChem-02101610503D

 42 44  0     0  0  0  0  0  0999 V2000
    2.2270    2.1167    0.6567 S   0  0  0  0  0  0  0  0  0  0  0  0
   -4.2599    1.5988   -0.5800 O   0  0  0  0  0  0  0  0  0  0  0  0
   -0.4149    2.7634    0.6447 O   0  0  0  0  0  0  0  0  0  0  0  0
    1.9987   -2.5399   -0.1856 O   0  0  0  0  0  0  0  0  0  0  0  0
    0.2064    0.6321   -0.1292 N   0  0  0  0  0  0  0  0  0  0  0  0
   -4.0771    0.2389   -0.3600 N   0  0  0  0  0  0  0  0  0  0  0  0
    2.1939   -1.6272   -2.2652 N   0  0  0  0  0  0  0  0  0  0  0  0
    3.8501    0.2377   -0.0029 C   0  0  0  0  0  0  0  0  0  0  0  0
    2.5442   -0.2427   -0.3090 C   0  0  0  0  0  0  0  0  0  0  0  0
    1.5976    0.6800    0.0029 C   0  0  0  0  0  0  0  0  0  0  0  0
    3.8225    1.5083    0.5285 C   0  0  0  0  0  0  0  0  0  0  0  0
   -2.1036    1.3396   -0.0753 C   0  0  0  0  0  0  0  0  0  0  0  0
   -2.7804    0.1054   -0.0594 C   0  0  0  0  0  0  0  0  0  0  0  0
   -0.7283    1.6413    0.1849 C   0  0  0  0  0  0  0  0  0  0  0  0
    5.0958   -0.5373   -0.2294 C   0  0  0  0  0  0  0  0  0  0  0  0
   -3.0777    2.2436   -0.4076 C   0  0  0  0  0  0  0  0  0  0  0  0
   -2.2312   -1.1893    0.2322 C   0  0  0  0  0  0  0  0  0  0  0  0
    4.9524    2.3548    0.9732 C   0  0  0  0  0  0  0  0  0  0  0  0
    2.2390   -1.5326   -0.8764 C   0  0  0  0  0  0  0  0  0  0  0  0
   -3.0969    3.6995   -0.6044 C   0  0  0  0  0  0  0  0  0  0  0  0
   -2.2203   -1.6627    1.5443 C   0  0  0  0  0  0  0  0  0  0  0  0
   -1.7091   -1.9733   -0.7964 C   0  0  0  0  0  0  0  0  0  0  0  0
   -1.6871   -2.9202    1.8277 C   0  0  0  0  0  0  0  0  0  0  0  0
   -1.1760   -3.2308   -0.5132 C   0  0  0  0  0  0  0  0  0  0  0  0
   -1.1651   -3.7042    0.7990 C   0  0  0  0  0  0  0  0  0  0  0  0
   -0.1223   -0.2178   -0.5668 H   0  0  0  0  0  0  0  0  0  0  0  0
    4.9225   -1.6144   -0.1376 H   0  0  0  0  0  0  0  0  0  0  0  0
    5.4864   -0.3386   -1.2329 H   0  0  0  0  0  0  0  0  0  0  0  0
    5.8718   -0.2765    0.4977 H   0  0  0  0  0  0  0  0  0  0  0  0
    5.7648    2.3320    0.2388 H   0  0  0  0  0  0  0  0  0  0  0  0
    4.6673    3.4038    1.1065 H   0  0  0  0  0  0  0  0  0  0  0  0
    5.3464    1.9901    1.9277 H   0  0  0  0  0  0  0  0  0  0  0  0
   -2.2752    4.0143   -1.2552 H   0  0  0  0  0  0  0  0  0  0  0  0
   -4.0328    4.0284   -1.0672 H   0  0  0  0  0  0  0  0  0  0  0  0
   -2.9946    4.2169    0.3545 H   0  0  0  0  0  0  0  0  0  0  0  0
   -2.6225   -1.0637    2.3579 H   0  0  0  0  0  0  0  0  0  0  0  0
   -1.7110   -1.6206   -1.8253 H   0  0  0  0  0  0  0  0  0  0  0  0
   -1.6777   -3.2885    2.8494 H   0  0  0  0  0  0  0  0  0  0  0  0
   -0.7683   -3.8408   -1.3140 H   0  0  0  0  0  0  0  0  0  0  0  0
   -0.7488   -4.6827    1.0196 H   0  0  0  0  0  0  0  0  0  0  0  0
    2.3744   -0.8295   -2.8665 H   0  0  0  0  0  0  0  0  0  0  0  0
    1.9748   -2.5068   -2.7209 H   0  0  0  0  0  0  0  0  0  0  0  0
  1 10  1  0  0  0  0
  1 11  1  0  0  0  0
  2  6  1  0  0  0  0
  2 16  1  0  0  0  0
  3 14  2  0  0  0  0
  4 19  2  0  0  0  0
  5 10  1  0  0  0  0
  5 14  1  0  0  0  0
  5 26  1  0  0  0  0
  6 13  2  0  0  0  0
  7 19  1  0  0  0  0
  7 41  1  0  0  0  0
  7 42  1  0  0  0  0
  8  9  1  0  0  0  0
  8 11  2  0  0  0  0
  8 15  1  0  0  0  0
  9 10  2  0  0  0  0
  9 19  1  0  0  0  0
 11 18  1  0  0  0  0
 12 13  1  0  0  0  0
 12 14  1  0  0  0  0
 12 16  2  0  0  0  0
 13 17  1  0  0  0  0
 15 27  1  0  0  0  0
 15 28  1  0  0  0  0
 15 29  1  0  0  0  0
 16 20  1  0  0  0  0
 17 21  2  0  0  0  0
 17 22  1  0  0  0  0
 18 30  1  0  0  0  0
 18 31  1  0  0  0  0
 18 32  1  0  0  0  0
 20 33  1  0  0  0  0
 20 34  1  0  0  0  0
 20 35  1  0  0  0  0
 21 23  1  0  0  0  0
 21 36  1  0  0  0  0
 22 24  2  0  0  0  0
 22 37  1  0  0  0  0
 23 25  2  0  0  0  0
 23 38  1  0  0  0  0
 24 25  1  0  0  0  0
 24 39  1  0  0  0  0
 25 40  1  0  0  0  0
M  END
> <PUBCHEM_COMPOUND_CID>
1358448

> <PUBCHEM_CONFORMER_RMSD>
0.8

> <PUBCHEM_CONFORMER_DIVERSEORDER>
2
39
29
33
18
28
32
12
8
14
9
7
11
17
20
31
30
1
13
24
34
16
37
23
6
3
10
36
22
26
15
38
5
4
40
21
19
27
35
25

> <PUBCHEM_MMFF94_PARTIAL_CHARGES>
33
1 -0.08
10 0.1
11 -0.14
12 -0.09
13 0.23
14 0.72
15 0.18
16 -0.04
17 0.05
18 0.18
19 0.72
2 -0.02
20 0.18
21 -0.15
22 -0.15
23 -0.15
24 -0.15
25 -0.15
26 0.37
3 -0.57
36 0.15
37 0.15
38 0.15
39 0.15
4 -0.57
40 0.15
41 0.37
42 0.37
5 -0.49
6 -0.41
7 -0.8
8 -0.18
9 -0.09

> <PUBCHEM_EFFECTIVE_ROTOR_COUNT>
5

> <PUBCHEM_PHARMACOPHORE_FEATURES>
8
1 3 acceptor
1 4 acceptor
1 5 donor
1 6 acceptor
1 7 donor
5 1 8 9 10 11 rings
5 2 6 12 13 16 rings
6 17 21 22 23 24 25 rings

> <PUBCHEM_HEAVY_ATOM_COUNT>
25

> <PUBCHEM_ATOM_DEF_STEREO_COUNT>
0

> <PUBCHEM_ATOM_UDEF_STEREO_COUNT>
0

> <PUBCHEM_BOND_DEF_STEREO_COUNT>
0

> <PUBCHEM_BOND_UDEF_STEREO_COUNT>
0

> <PUBCHEM_ISOTOPIC_ATOM_COUNT>
0

> <PUBCHEM_COMPONENT_COUNT>
1

> <PUBCHEM_CACTVS_TAUTO_COUNT>
7

> <PUBCHEM_CONFORMER_ID>
0014BA7000000002

> <PUBCHEM_MMFF94_ENERGY>
67.1979

> <PUBCHEM_FEATURE_SELFOVERLAP>
40.597

> <PUBCHEM_SHAPE_FINGERPRINT>
10366900 7 18130785685301341304
10616163 171 18267020746591923372
10675989 125 17907570337791028416
107951 10 17749392529466146315
108634 29 18411426106821694638
10906281 52 18340215210047062093
1100329 8 17760082913287295803
11370993 70 18338229375666131988
11578080 2 16843025692670803275
12035758 1 18191321557801686395
12553582 1 17760103095380758975
12633257 1 18340485578237851978
12788726 201 18264470949331404435
13034934 17 17842545534194331096
13140716 1 17907582776305649657
133893 2 15768395806698825420
13402501 40 18341050804196924641
138480 1 17401764121109862031
14363568 33 16604652834125425544
15375358 24 18413385440858158700
15420108 30 15179822525135436432
15635459 17 18130516253459940398
19930381 70 18199186192228186839
21133410 52 15964834984394697014
23559900 14 18127687128722175804
23728640 28 18335134332360211347
3298306 158 18047747096938011637
3380486 145 18126013899510203427
5309563 4 17399236842057148386
5364581 5 18051956311418913448
550186 72 17831575745049532620
8809292 202 18410575106380632040
9709674 26 18413673508535679486
9981440 41 18339348756008227234

> <PUBCHEM_SHAPE_MULTIPOLES>
485.79
8.33
4.59
1.24
7.54
0.56
0.01
-3.83
-0.24
-3.57
-0.34
0.04
0.81
2.3

> <PUBCHEM_SHAPE_SELFOVERLAP>
1048.175

> <PUBCHEM_SHAPE_VOLUME>
270.5

> <PUBCHEM_COORDINATE_TYPE>
2
5
10

$$$$
