5343424
  -OEChem-02101610503D

 27 28  0     0  0  0  0  0  0999 V2000
    3.7279   -2.1980   -0.0812 S   0  0  0  0  0  0  0  0  0  0  0  0
    1.3107    2.3011   -0.3377 O   0  0  0  0  0  0  0  0  0  0  0  0
   -4.4816   -0.2253   -0.5874 O   0  0  0  0  0  0  0  0  0  0  0  0
   -1.1584   -1.7249    0.1360 O   0  0  0  0  0  0  0  0  0  0  0  0
    2.4263    0.2451   -0.2213 N   0  0  0  0  0  0  0  0  0  0  0  0
    1.1374   -1.7406    0.0157 N   0  0  0  0  0  0  0  0  0  0  0  0
    3.7395    0.8903   -0.3458 C   0  0  0  0  0  0  0  0  0  0  0  0
   -0.0080    0.3514   -0.1018 C   0  0  0  0  0  0  0  0  0  0  0  0
    1.2857    1.0753   -0.2316 C   0  0  0  0  0  0  0  0  0  0  0  0
    2.3964   -1.1629   -0.0998 C   0  0  0  0  0  0  0  0  0  0  0  0
   -0.0972   -1.1183    0.0278 C   0  0  0  0  0  0  0  0  0  0  0  0
   -1.1483    1.0574   -0.1021 C   0  0  0  0  0  0  0  0  0  0  0  0
    4.3101    1.2535    1.0095 C   0  0  0  0  0  0  0  0  0  0  0  0
   -2.4948    0.5593    0.0108 C   0  0  0  0  0  0  0  0  0  0  0  0
   -3.2271    0.3615    1.1829 C   0  0  0  0  0  0  0  0  0  0  0  0
   -3.2731    0.1983   -1.0415 C   0  0  0  0  0  0  0  0  0  0  0  0
   -4.4455   -0.1230    0.7674 C   0  0  0  0  0  0  0  0  0  0  0  0
    4.4443    0.2743   -0.9108 H   0  0  0  0  0  0  0  0  0  0  0  0
    3.6215    1.8120   -0.9284 H   0  0  0  0  0  0  0  0  0  0  0  0
    1.1225   -2.7533    0.1029 H   0  0  0  0  0  0  0  0  0  0  0  0
   -1.0973    2.1409   -0.1953 H   0  0  0  0  0  0  0  0  0  0  0  0
    3.6428    1.9363    1.5465 H   0  0  0  0  0  0  0  0  0  0  0  0
    4.4564    0.3733    1.6424 H   0  0  0  0  0  0  0  0  0  0  0  0
    5.2779    1.7509    0.8927 H   0  0  0  0  0  0  0  0  0  0  0  0
   -2.9288    0.5400    2.2063 H   0  0  0  0  0  0  0  0  0  0  0  0
   -3.1443    0.1758   -2.1143 H   0  0  0  0  0  0  0  0  0  0  0  0
   -5.3447   -0.4270    1.2830 H   0  0  0  0  0  0  0  0  0  0  0  0
  1 10  2  0  0  0  0
  2  9  2  0  0  0  0
  3 16  1  0  0  0  0
  3 17  1  0  0  0  0
  4 11  2  0  0  0  0
  5  7  1  0  0  0  0
  5  9  1  0  0  0  0
  5 10  1  0  0  0  0
  6 10  1  0  0  0  0
  6 11  1  0  0  0  0
  6 20  1  0  0  0  0
  7 13  1  0  0  0  0
  7 18  1  0  0  0  0
  7 19  1  0  0  0  0
  8  9  1  0  0  0  0
  8 11  1  0  0  0  0
  8 12  2  0  0  0  0
 12 14  1  0  0  0  0
 12 21  1  0  0  0  0
 13 22  1  0  0  0  0
 13 23  1  0  0  0  0
 13 24  1  0  0  0  0
 14 15  1  0  0  0  0
 14 16  2  0  0  0  0
 15 17  2  0  0  0  0
 15 25  1  0  0  0  0
 16 26  1  0  0  0  0
 17 27  1  0  0  0  0
M  END
> <PUBCHEM_COMPOUND_CID>
5343424

> <PUBCHEM_CONFORMER_RMSD>
0.6

> <PUBCHEM_CONFORMER_DIVERSEORDER>
1
2

> <PUBCHEM_MMFF94_PARTIAL_CHARGES>
21
1 -0.38
10 0.5
11 0.62
12 -0.1
14 -0.05
15 -0.15
16 -0.01
17 -0.01
2 -0.57
20 0.37
21 0.15
25 0.15
26 0.15
27 0.15
3 -0.28
4 -0.57
5 -0.42
6 -0.49
7 0.3
8 0.03
9 0.62

> <PUBCHEM_EFFECTIVE_ROTOR_COUNT>
2.4

> <PUBCHEM_PHARMACOPHORE_FEATURES>
8
1 1 acceptor
1 2 acceptor
1 3 acceptor
1 4 acceptor
1 6 donor
1 8 anion
5 3 14 15 16 17 rings
6 5 6 8 9 10 11 rings

> <PUBCHEM_HEAVY_ATOM_COUNT>
17

> <PUBCHEM_ATOM_DEF_STEREO_COUNT>
0

> <PUBCHEM_ATOM_UDEF_STEREO_COUNT>
0

> <PUBCHEM_BOND_DEF_STEREO_COUNT>
1

> <PUBCHEM_BOND_UDEF_STEREO_COUNT>
0

> <PUBCHEM_ISOTOPIC_ATOM_COUNT>
0

> <PUBCHEM_COMPONENT_COUNT>
1

> <PUBCHEM_CACTVS_TAUTO_COUNT>
3

> <PUBCHEM_CONFORMER_ID>
005188C000000001

> <PUBCHEM_MMFF94_ENERGY>
40.0509

> <PUBCHEM_FEATURE_SELFOVERLAP>
40.597

> <PUBCHEM_SHAPE_FINGERPRINT>
10967382 1 18409731776756766364
10980938 120 18409731750965941494
11132069 177 18335136522471499094
11471102 20 18409165502261339679
11543360 7 15841269349991598204
11680986 33 18409175432452893154
12032990 46 18263932046578171718
12236239 1 17917992768219922645
13140716 1 18121780792528427856
13380535 76 18409448128421381658
13760787 5 18341612586204071663
13862211 1 18337107844400918958
14144814 61 18411704266067497009
14251717 144 18410009931391512846
14252887 29 18334859407245439712
14897335 6 18412260670612149902
15196674 1 18410575050556567617
15219456 202 18186802448524884045
15536298 74 18342739598438975974
16945 1 18408890654361300332
18186145 218 18342183236659295397
19026448 5 17203607064618344999
19422 9 17917713457342434727
200 152 18272082799895746965
20279233 1 17676489449646133193
204376 136 18337673139015671504
20645477 70 18337946788387986911
21267235 1 18338808818626591062
221490 88 18262247715029024875
22182313 1 18188757341713312500
22854114 59 18411138043264678097
2334 1 17760933235191674724
23402539 116 18198337356155554214
23402655 69 18341889671872041957
23557571 272 17241045392747523805
23559900 14 17023192574215470754
2748010 2 18191299373683639900
42630746 31 18411981372925194094
474 4 17843953969623855832
5104073 3 18338802217245591993
53812653 166 18342454893857913944
57812782 119 17749109993595394717
69090 78 18341610438319750287
7364860 26 18343582911384164806
77492 1 17846781797739847301

> <PUBCHEM_SHAPE_MULTIPOLES>
326.13
8.6
1.97
0.89
2.54
0.37
0.1
0.08
1.01
-2.36
-0.01
0.41
-0.13
0.22

> <PUBCHEM_SHAPE_SELFOVERLAP>
688.162

> <PUBCHEM_SHAPE_VOLUME>
185.8

> <PUBCHEM_COORDINATE_TYPE>
2
5
10

$$$$
