9586237
  -OEChem-02101610513D

 29 30  0     0  0  0  0  0  0999 V2000
   -1.9008   -2.9572    0.0039 Cl  0  0  0  0  0  0  0  0  0  0  0  0
    0.4231    1.0558   -0.0006 S   0  0  0  0  0  0  0  0  0  0  0  0
    0.2690    1.7632    1.2578 O   0  0  0  0  0  0  0  0  0  0  0  0
    0.2230    1.7491   -1.2607 O   0  0  0  0  0  0  0  0  0  0  0  0
   -5.8404    0.1589   -0.0001 O   0  0  0  0  0  0  0  0  0  0  0  0
   -0.4559   -0.3164    0.0007 N   0  0  0  0  0  0  0  0  0  0  0  0
    2.0916    0.4612   -0.0004 C   0  0  0  0  0  0  0  0  0  0  0  0
    4.6953   -0.4673   -0.0016 C   0  0  0  0  0  0  0  0  0  0  0  0
    2.7239    0.2347   -1.2086 C   0  0  0  0  0  0  0  0  0  0  0  0
    2.7254    0.2362    1.2074 C   0  0  0  0  0  0  0  0  0  0  0  0
    4.0377   -0.2339   -1.2092 C   0  0  0  0  0  0  0  0  0  0  0  0
    4.0393   -0.2323    1.2068 C   0  0  0  0  0  0  0  0  0  0  0  0
   -1.7472   -0.2092    0.0008 C   0  0  0  0  0  0  0  0  0  0  0  0
    6.1003   -0.9678   -0.0019 C   0  0  0  0  0  0  0  0  0  0  0  0
   -2.6391   -1.3984    0.0022 C   0  0  0  0  0  0  0  0  0  0  0  0
   -2.4138    1.1175   -0.0002 C   0  0  0  0  0  0  0  0  0  0  0  0
   -3.9695   -1.2783    0.0025 C   0  0  0  0  0  0  0  0  0  0  0  0
   -3.7428    1.2356    0.0000 C   0  0  0  0  0  0  0  0  0  0  0  0
   -4.6194    0.0484    0.0010 C   0  0  0  0  0  0  0  0  0  0  0  0
    2.2260    0.4023   -2.1585 H   0  0  0  0  0  0  0  0  0  0  0  0
    2.2296    0.4032    2.1585 H   0  0  0  0  0  0  0  0  0  0  0  0
    4.5372   -0.4167   -2.1570 H   0  0  0  0  0  0  0  0  0  0  0  0
    4.5400   -0.4141    2.1540 H   0  0  0  0  0  0  0  0  0  0  0  0
    6.6481   -0.6076    0.8756 H   0  0  0  0  0  0  0  0  0  0  0  0
    6.1091   -2.0622    0.0038 H   0  0  0  0  0  0  0  0  0  0  0  0
    6.6448   -0.6170   -0.8852 H   0  0  0  0  0  0  0  0  0  0  0  0
   -1.8739    2.0532    0.0043 H   0  0  0  0  0  0  0  0  0  0  0  0
   -4.6240   -2.1438    0.0034 H   0  0  0  0  0  0  0  0  0  0  0  0
   -4.2182    2.2104    0.0012 H   0  0  0  0  0  0  0  0  0  0  0  0
  1 15  1  0  0  0  0
  2  3  2  0  0  0  0
  2  4  2  0  0  0  0
  2  6  1  0  0  0  0
  2  7  1  0  0  0  0
  5 19  2  0  0  0  0
  6 13  2  0  0  0  0
  7  9  2  0  0  0  0
  7 10  1  0  0  0  0
  8 11  2  0  0  0  0
  8 12  1  0  0  0  0
  8 14  1  0  0  0  0
  9 11  1  0  0  0  0
  9 20  1  0  0  0  0
 10 12  2  0  0  0  0
 10 21  1  0  0  0  0
 11 22  1  0  0  0  0
 12 23  1  0  0  0  0
 13 15  1  0  0  0  0
 13 16  1  0  0  0  0
 14 24  1  0  0  0  0
 14 25  1  0  0  0  0
 14 26  1  0  0  0  0
 15 17  2  0  0  0  0
 16 18  2  0  0  0  0
 16 27  1  0  0  0  0
 17 19  1  0  0  0  0
 17 28  1  0  0  0  0
 18 19  1  0  0  0  0
 18 29  1  0  0  0  0
M  END
> <PUBCHEM_COMPOUND_CID>
9586237

> <PUBCHEM_CONFORMER_RMSD>
0.6

> <PUBCHEM_CONFORMER_DIVERSEORDER>
1

> <PUBCHEM_MMFF94_PARTIAL_CHARGES>
26
1 -0.14
10 -0.15
11 -0.15
12 -0.15
13 0.42
14 0.14
15 0.15
16 -0.14
17 -0.14
18 -0.14
19 0.54
2 1.5
20 0.15
21 0.15
22 0.15
23 0.15
27 0.15
28 0.15
29 0.15
3 -0.65
4 -0.65
5 -0.57
6 -0.64
7 -0.01
8 -0.14
9 -0.15

> <PUBCHEM_EFFECTIVE_ROTOR_COUNT>
2

> <PUBCHEM_PHARMACOPHORE_FEATURES>
7
1 3 acceptor
1 4 acceptor
1 5 acceptor
1 6 acceptor
1 6 donor
6 13 15 16 17 18 19 rings
6 7 8 9 10 11 12 rings

> <PUBCHEM_HEAVY_ATOM_COUNT>
19

> <PUBCHEM_ATOM_DEF_STEREO_COUNT>
0

> <PUBCHEM_ATOM_UDEF_STEREO_COUNT>
0

> <PUBCHEM_BOND_DEF_STEREO_COUNT>
1

> <PUBCHEM_BOND_UDEF_STEREO_COUNT>
0

> <PUBCHEM_ISOTOPIC_ATOM_COUNT>
0

> <PUBCHEM_COMPONENT_COUNT>
1

> <PUBCHEM_CACTVS_TAUTO_COUNT>
1

> <PUBCHEM_CONFORMER_ID>
0092463D00000001

> <PUBCHEM_MMFF94_ENERGY>
42.7659

> <PUBCHEM_FEATURE_SELFOVERLAP>
35.574

> <PUBCHEM_SHAPE_FINGERPRINT>
10 15 17560785647160634730
10366900 7 17203336606654780770
10465860 250 18131070432842469992
11045977 3 18060132176565449792
12236239 1 17749109972178528580
12346177 29 18272362122640499687
12507557 5 12751232614613182811
12553582 1 17895461592437629850
12555020 224 18410282641063048975
12788726 201 17822567192810774696
128620 24 9727639405761295243
13167823 11 18113901580497335018
13288520 33 18410575076073163829
13533116 47 17774724143409405774
13675066 3 17917706932959999480
13862211 1 18411417358753982247
14115302 16 18408890667219795940
14251731 8 18408038498521489237
14386348 63 17917714595561496214
15042514 8 18265336286890369267
15099037 51 18411138048081780911
15375358 24 17846500339536921566
15537594 2 17821725031191095554
15880784 105 16343415197805273598
17492 89 18047756184978553171
17804303 29 18412262878362366737
17834072 8 18335134289573724117
1813 80 17240486866679053974
18186145 218 14851605513883880876
19141452 34 18343581875896243495
19489759 90 17989205923989168697
200 152 16950282880293625668
20279233 1 17632301185079342014
20374829 77 18411418418729663438
20645477 70 16558756676588489444
20681677 155 18259985989582491258
21033648 29 16630232619926531449
21267235 1 18334019397678753491
21279426 13 17913777119483172740
22224240 67 16128363879851897758
23175994 123 17489590073716289721
23402539 116 18273207600196165845
23402655 69 14634587164489206784
23557571 272 18272934873888716096
23559900 14 18271242824156465080
26918003 58 17203890768699049522
3004659 81 18260832583988130622
335352 9 18410573994479935893
351380 3 17748824103466254458
4214541 1 18410856551113398849
4325135 7 18335702772009862860
5104073 3 18269280226044349139
5385378 56 18196945370814880483
559249 180 18188204299838031442
58051976 100 18113899394411793847
59755656 215 18341050714113816735
602551 16 18411415116369330778
9709674 26 18127123306632034563

> <PUBCHEM_SHAPE_MULTIPOLES>
374.14
11.97
1.89
1.05
3.25
1
0
2.78
0
-1.67
0
1.11
-0.22
0.01

> <PUBCHEM_SHAPE_SELFOVERLAP>
780.376

> <PUBCHEM_SHAPE_VOLUME>
212.4

> <PUBCHEM_COORDINATE_TYPE>
2
5
10

$$$$
