5351306
  -OEChem-02101610523D

 36 37  0     1  0  0  0  0  0999 V2000
    1.9686   -2.4075   -1.0530 O   0  0  0  0  0  0  0  0  0  0  0  0
    4.0471   -1.1123    0.1043 O   0  0  0  0  0  0  0  0  0  0  0  0
    3.2530    1.0635    1.8006 O   0  0  0  0  0  0  0  0  0  0  0  0
   -2.5439   -0.3754   -0.1964 C   0  0  2  0  0  0  0  0  0  0  0  0
   -1.9303   -1.4843    0.6483 C   0  0  0  0  0  0  0  0  0  0  0  0
   -1.5914    0.8274   -0.2612 C   0  0  0  0  0  0  0  0  0  0  0  0
   -0.6115   -1.9298    0.0237 C   0  0  0  0  0  0  0  0  0  0  0  0
   -0.1099    0.4906   -0.4125 C   0  0  0  0  0  0  0  0  0  0  0  0
    0.3350   -0.7855   -0.3077 C   0  0  0  0  0  0  0  0  0  0  0  0
   -3.8838    0.0356    0.3317 C   0  0  0  0  0  0  0  0  0  0  0  0
    0.7634    1.6591   -0.6167 C   0  0  0  0  0  0  0  0  0  0  0  0
    1.7383   -1.1961   -0.4117 C   0  0  0  0  0  0  0  0  0  0  0  0
   -5.0474   -0.1561   -0.5953 C   0  0  0  0  0  0  0  0  0  0  0  0
    1.9636    1.8149   -0.0320 C   0  0  0  0  0  0  0  0  0  0  0  0
    0.2407    2.7808   -1.4810 C   0  0  0  0  0  0  0  0  0  0  0  0
    2.7827   -0.5521    0.1299 C   0  0  0  0  0  0  0  0  0  0  0  0
   -4.0347    0.5451    1.5632 C   0  0  0  0  0  0  0  0  0  0  0  0
    2.6605    0.7820    0.7658 C   0  0  0  0  0  0  0  0  0  0  0  0
   -2.6659   -0.7614   -1.2188 H   0  0  0  0  0  0  0  0  0  0  0  0
   -2.6077   -2.3448    0.7140 H   0  0  0  0  0  0  0  0  0  0  0  0
   -1.7431   -1.1473    1.6763 H   0  0  0  0  0  0  0  0  0  0  0  0
   -1.6824    1.4556    0.6349 H   0  0  0  0  0  0  0  0  0  0  0  0
   -1.9264    1.4414   -1.1070 H   0  0  0  0  0  0  0  0  0  0  0  0
   -0.8151   -2.4942   -0.8959 H   0  0  0  0  0  0  0  0  0  0  0  0
   -0.1325   -2.6249    0.7257 H   0  0  0  0  0  0  0  0  0  0  0  0
   -5.1495   -1.2126   -0.8640 H   0  0  0  0  0  0  0  0  0  0  0  0
   -5.9918    0.1649   -0.1432 H   0  0  0  0  0  0  0  0  0  0  0  0
   -4.9030    0.4253   -1.5118 H   0  0  0  0  0  0  0  0  0  0  0  0
    2.5114    2.7483   -0.1335 H   0  0  0  0  0  0  0  0  0  0  0  0
   -0.5690    3.3209   -0.9794 H   0  0  0  0  0  0  0  0  0  0  0  0
   -0.1270    2.3919   -2.4370 H   0  0  0  0  0  0  0  0  0  0  0  0
    1.0199    3.5143   -1.7184 H   0  0  0  0  0  0  0  0  0  0  0  0
   -5.0129    0.8383    1.9308 H   0  0  0  0  0  0  0  0  0  0  0  0
   -3.1987    0.6815    2.2403 H   0  0  0  0  0  0  0  0  0  0  0  0
    2.9253   -2.5842   -1.0357 H   0  0  0  0  0  0  0  0  0  0  0  0
    4.6535   -0.4871    0.5378 H   0  0  0  0  0  0  0  0  0  0  0  0
  1 12  1  0  0  0  0
  1 35  1  0  0  0  0
  2 16  1  0  0  0  0
  2 36  1  0  0  0  0
  3 18  2  0  0  0  0
  4  5  1  0  0  0  0
  4  6  1  0  0  0  0
  4 10  1  0  0  0  0
  4 19  1  0  0  0  0
  5  7  1  0  0  0  0
  5 20  1  0  0  0  0
  5 21  1  0  0  0  0
  6  8  1  0  0  0  0
  6 22  1  0  0  0  0
  6 23  1  0  0  0  0
  7  9  1  0  0  0  0
  7 24  1  0  0  0  0
  7 25  1  0  0  0  0
  8  9  2  0  0  0  0
  8 11  1  0  0  0  0
  9 12  1  0  0  0  0
 10 13  1  0  0  0  0
 10 17  2  0  0  0  0
 11 14  2  0  0  0  0
 11 15  1  0  0  0  0
 12 16  2  0  0  0  0
 13 26  1  0  0  0  0
 13 27  1  0  0  0  0
 13 28  1  0  0  0  0
 14 18  1  0  0  0  0
 14 29  1  0  0  0  0
 15 30  1  0  0  0  0
 15 31  1  0  0  0  0
 15 32  1  0  0  0  0
 16 18  1  0  0  0  0
 17 33  1  0  0  0  0
 17 34  1  0  0  0  0
M  END
> <PUBCHEM_COMPOUND_CID>
5351306

> <PUBCHEM_CONFORMER_RMSD>
0.6

> <PUBCHEM_CONFORMER_DIVERSEORDER>
1
4
5
2
3

> <PUBCHEM_MMFF94_PARTIAL_CHARGES>
22
1 -0.53
10 -0.28
11 -0.14
12 0.08
13 0.14
14 -0.14
15 0.14
16 0.09
17 -0.3
18 0.54
2 -0.53
29 0.15
3 -0.57
33 0.15
34 0.15
35 0.45
36 0.45
4 0.14
6 0.14
7 0.14
8 -0.14
9 -0.14

> <PUBCHEM_EFFECTIVE_ROTOR_COUNT>
1.8

> <PUBCHEM_PHARMACOPHORE_FEATURES>
5
1 1 donor
1 2 donor
1 3 acceptor
6 4 5 6 7 8 9 rings
7 8 9 11 12 14 16 18 rings

> <PUBCHEM_HEAVY_ATOM_COUNT>
18

> <PUBCHEM_ATOM_DEF_STEREO_COUNT>
1

> <PUBCHEM_ATOM_UDEF_STEREO_COUNT>
0

> <PUBCHEM_BOND_DEF_STEREO_COUNT>
0

> <PUBCHEM_BOND_UDEF_STEREO_COUNT>
0

> <PUBCHEM_ISOTOPIC_ATOM_COUNT>
0

> <PUBCHEM_COMPONENT_COUNT>
1

> <PUBCHEM_CACTVS_TAUTO_COUNT>
171

> <PUBCHEM_CONFORMER_ID>
0051A78A00000001

> <PUBCHEM_MMFF94_ENERGY>
53.6487

> <PUBCHEM_FEATURE_SELFOVERLAP>
25.386

> <PUBCHEM_SHAPE_FINGERPRINT>
10967382 1 18408605872249053423
11086676 242 18040988562170985640
11132069 177 18337662104991253249
11471102 20 18411698794168288247
11680986 33 18338526325589604919
11796584 16 16008745780108025731
12011746 2 18410858741805118094
12251169 10 18334851766155748128
12382932 28 18337389464825658585
12633257 1 17968647332523735080
12644460 14 17824003283703081517
12696612 119 18189338038001926676
12716301 132 17899115136559727240
13140716 1 18264488562464628138
13583140 156 15553585315344658659
14022347 108 17895486829512610362
14178342 30 18267861859833595795
14790565 3 17902240232280118924
15501101 241 18342739589759390100
15536298 74 18273216400130402975
15848700 24 18335415759917993909
15848702 151 17916589726362733687
1601671 61 18263369238670161100
16945 1 18409166640353846116
17349148 13 18339354275457569719
17357779 13 18262789666976773557
18186145 218 18342466915487121575
192875 21 18411981390854584777
19784866 170 18335413630089196016
200 152 18130498704803791519
20511035 2 18197222670371281230
20645477 70 18187078511916752365
21501502 16 18118972631256704623
22182313 1 18263632974888347772
22892500 29 17704066322136030408
23184049 59 18410291428011780499
2334 1 18048044261414462679
23388829 49 17619337049703399662
23402539 116 18337944602339316887
23559900 14 18411701014639986862
2748010 2 18191298278245296973
3286 77 17846492612953877728
474 4 18411419548733206859
5939293 188 18189051061188408420
69090 78 18343295985877794751
7164475 11 17981038936312887175
7364860 26 18265341774998542252
81228 2 17970916548461947533
9971528 1 18410854356590839109

> <PUBCHEM_SHAPE_MULTIPOLES>
352.82
7.26
2.35
1.19
5.9
0.5
-0.32
-0.58
-1.86
-1.42
0.85
-0.06
0.36
0.37

> <PUBCHEM_SHAPE_SELFOVERLAP>
745.145

> <PUBCHEM_SHAPE_VOLUME>
197

> <PUBCHEM_COORDINATE_TYPE>
2
5
10

$$$$
