3246111
  -OEChem-02101610523D

 16 17  0     0  0  0  0  0  0999 V2000
   -0.7484    3.0813    0.0005 S   0  0  0  0  0  0  0  0  0  0  0  0
   -3.6123   -1.4315   -0.0006 S   0  0  0  0  0  0  0  0  0  0  0  0
    3.7118   -0.4691   -0.0008 O   0  0  0  0  0  0  0  0  0  0  0  0
    1.7333    0.8575   -0.0004 N   0  0  0  0  0  0  0  0  0  0  0  0
    1.5125   -1.3850    0.0007 N   0  0  0  0  0  0  0  0  0  0  0  0
   -0.9326   -1.4286    0.0005 N   0  0  0  0  0  0  0  0  0  0  0  0
   -1.9685    0.6948   -0.0002 N   0  0  0  0  0  0  0  0  0  0  0  0
    0.4080    0.5242    0.0001 C   0  0  0  0  0  0  0  0  0  0  0  0
    0.2739   -0.8044    0.0005 C   0  0  0  0  0  0  0  0  0  0  0  0
   -0.7634    1.4089   -0.0001 C   0  0  0  0  0  0  0  0  0  0  0  0
    2.4969   -0.3495    0.0001 C   0  0  0  0  0  0  0  0  0  0  0  0
   -2.1111   -0.6986   -0.0003 C   0  0  0  0  0  0  0  0  0  0  0  0
    2.0969    1.8024   -0.0011 H   0  0  0  0  0  0  0  0  0  0  0  0
    1.6849   -2.3825    0.0009 H   0  0  0  0  0  0  0  0  0  0  0  0
   -0.9590   -2.4432    0.0007 H   0  0  0  0  0  0  0  0  0  0  0  0
   -2.8247    1.2422   -0.0004 H   0  0  0  0  0  0  0  0  0  0  0  0
  1 10  2  0  0  0  0
  2 12  2  0  0  0  0
  3 11  2  0  0  0  0
  4  8  1  0  0  0  0
  4 11  1  0  0  0  0
  4 13  1  0  0  0  0
  5  9  1  0  0  0  0
  5 11  1  0  0  0  0
  5 14  1  0  0  0  0
  6  9  1  0  0  0  0
  6 12  1  0  0  0  0
  6 15  1  0  0  0  0
  7 10  1  0  0  0  0
  7 12  1  0  0  0  0
  7 16  1  0  0  0  0
  8  9  2  0  0  0  0
  8 10  1  0  0  0  0
M  END
> <PUBCHEM_COMPOUND_CID>
3246111

> <PUBCHEM_CONFORMER_RMSD>
0.4

> <PUBCHEM_CONFORMER_DIVERSEORDER>
1

> <PUBCHEM_MMFF94_PARTIAL_CHARGES>
16
1 -0.38
10 0.43
11 0.69
12 0.5
13 0.37
14 0.37
15 0.37
16 0.37
2 -0.38
3 -0.57
4 -0.54
5 -0.54
6 -0.54
7 -0.49
8 0.12
9 0.22

> <PUBCHEM_EFFECTIVE_ROTOR_COUNT>
0

> <PUBCHEM_PHARMACOPHORE_FEATURES>
9
1 1 acceptor
1 2 acceptor
1 3 acceptor
1 4 donor
1 5 donor
1 6 donor
1 7 donor
5 4 5 8 9 11 rings
6 6 7 8 9 10 12 rings

> <PUBCHEM_HEAVY_ATOM_COUNT>
12

> <PUBCHEM_ATOM_DEF_STEREO_COUNT>
0

> <PUBCHEM_ATOM_UDEF_STEREO_COUNT>
0

> <PUBCHEM_BOND_DEF_STEREO_COUNT>
0

> <PUBCHEM_BOND_UDEF_STEREO_COUNT>
0

> <PUBCHEM_ISOTOPIC_ATOM_COUNT>
0

> <PUBCHEM_COMPONENT_COUNT>
1

> <PUBCHEM_CACTVS_TAUTO_COUNT>
24

> <PUBCHEM_CONFORMER_ID>
0031881F00000001

> <PUBCHEM_MMFF94_ENERGY>
36.8301

> <PUBCHEM_FEATURE_SELFOVERLAP>
45.902

> <PUBCHEM_SHAPE_FINGERPRINT>
10219947 1 18270403913837662487
11206711 2 18409731720690239220
12032990 46 18410579525828496779
13380535 76 17907851804213824757
16945 1 18338798884050334468
193761 8 17906452126022526503
20510252 161 18342737386557205680
20645477 70 17904752638156485751
20871998 184 18201719518188522415
20871998 22 18271258161273702015
21040471 1 17834394523299608004
21501502 16 18192993712538481538
221490 88 17759522562216771899
23402539 116 18271516567917723455
23552423 10 18260553285953209974
241688 4 18410573993968479809
2748010 2 18339913913521765925
3071541 12 17978514466221025013
3071541 158 18188766288008961613
7364860 26 17980764062568612513
81228 2 18337400326935301561

> <PUBCHEM_SHAPE_MULTIPOLES>
228.86
4.63
2.5
0.6
0.19
2.55
0
-2.92
0
-0.87
0
-0.07
0.03
0

> <PUBCHEM_SHAPE_SELFOVERLAP>
473.554

> <PUBCHEM_SHAPE_VOLUME>
133.9

> <PUBCHEM_COORDINATE_TYPE>
2
5
10

$$$$
