72412
  -OEChem-02101610533D

 54 58  0     1  0  0  0  0  0999 V2000
   -3.1750   -1.7069   -0.0938 O   0  0  0  0  0  0  0  0  0  0  0  0
    1.6112   -1.4066   -0.1620 O   0  0  0  0  0  0  0  0  0  0  0  0
   -3.4865    2.1718   -1.0446 O   0  0  0  0  0  0  0  0  0  0  0  0
   -1.0362    2.6087    0.1540 O   0  0  0  0  0  0  0  0  0  0  0  0
   -0.0501    4.6631    0.3169 O   0  0  0  0  0  0  0  0  0  0  0  0
   -4.6465    0.2155   -0.2477 C   0  0  1  0  0  0  0  0  0  0  0  0
   -3.4682    1.1812   -0.0167 C   0  0  1  0  0  0  0  0  0  0  0  0
   -4.3461   -1.1031    0.4770 C   0  0  1  0  0  0  0  0  0  0  0  0
   -2.1290    0.4792   -0.0269 C   0  0  0  0  0  0  0  0  0  0  0  0
   -2.0525   -0.9164   -0.0748 C   0  0  0  0  0  0  0  0  0  0  0  0
   -0.8060   -1.5676   -0.1326 C   0  0  0  0  0  0  0  0  0  0  0  0
   -0.9227    1.2023    0.0374 C   0  0  0  0  0  0  0  0  0  0  0  0
    0.3794   -0.8111   -0.0891 C   0  0  0  0  0  0  0  0  0  0  0  0
    0.3391    0.5959    0.0000 C   0  0  0  0  0  0  0  0  0  0  0  0
   -5.9649    0.8551    0.1983 C   0  0  0  0  0  0  0  0  0  0  0  0
    1.7433   -2.8256    0.0366 C   0  0  0  0  0  0  0  0  0  0  0  0
   -5.4606   -2.1371    0.3426 C   0  0  0  0  0  0  0  0  0  0  0  0
   -0.7202   -3.0224   -0.2428 C   0  0  0  0  0  0  0  0  0  0  0  0
    1.5382    1.4675    0.0573 C   0  0  0  0  0  0  0  0  0  0  0  0
    0.4746   -3.6086   -0.1557 C   0  0  0  0  0  0  0  0  0  0  0  0
    2.7866   -3.2924   -0.9858 C   0  0  0  0  0  0  0  0  0  0  0  0
    2.2806   -3.0441    1.4554 C   0  0  0  0  0  0  0  0  0  0  0  0
    1.3755    2.7972    0.1589 C   0  0  0  0  0  0  0  0  0  0  0  0
    2.9511    1.0336    0.0124 C   0  0  0  0  0  0  0  0  0  0  0  0
    0.0601    3.4465    0.2180 C   0  0  0  0  0  0  0  0  0  0  0  0
    3.6019    0.9233   -1.2131 C   0  0  0  0  0  0  0  0  0  0  0  0
    3.6219    0.7387    1.1956 C   0  0  0  0  0  0  0  0  0  0  0  0
    4.9349    0.5145   -1.2556 C   0  0  0  0  0  0  0  0  0  0  0  0
    4.9549    0.3300    1.1532 C   0  0  0  0  0  0  0  0  0  0  0  0
    5.6113    0.2179   -0.0724 C   0  0  0  0  0  0  0  0  0  0  0  0
   -4.7226    0.0167   -1.3266 H   0  0  0  0  0  0  0  0  0  0  0  0
   -3.5826    1.6891    0.9489 H   0  0  0  0  0  0  0  0  0  0  0  0
   -4.1676   -0.9325    1.5480 H   0  0  0  0  0  0  0  0  0  0  0  0
   -5.9915    0.9909    1.2847 H   0  0  0  0  0  0  0  0  0  0  0  0
   -6.0994    1.8368   -0.2684 H   0  0  0  0  0  0  0  0  0  0  0  0
   -6.8227    0.2406   -0.0913 H   0  0  0  0  0  0  0  0  0  0  0  0
   -6.3718   -1.8247    0.8602 H   0  0  0  0  0  0  0  0  0  0  0  0
   -5.6977   -2.3224   -0.7109 H   0  0  0  0  0  0  0  0  0  0  0  0
   -5.1426   -3.0967    0.7657 H   0  0  0  0  0  0  0  0  0  0  0  0
   -1.6159   -3.6180   -0.3722 H   0  0  0  0  0  0  0  0  0  0  0  0
    0.5351   -4.6927   -0.2060 H   0  0  0  0  0  0  0  0  0  0  0  0
   -3.1930    1.7561   -1.8735 H   0  0  0  0  0  0  0  0  0  0  0  0
    3.7239   -2.7358   -0.8691 H   0  0  0  0  0  0  0  0  0  0  0  0
    2.4422   -3.1030   -2.0098 H   0  0  0  0  0  0  0  0  0  0  0  0
    3.0081   -4.3609   -0.8890 H   0  0  0  0  0  0  0  0  0  0  0  0
    3.2180   -2.4969    1.6069 H   0  0  0  0  0  0  0  0  0  0  0  0
    2.4639   -4.1037    1.6648 H   0  0  0  0  0  0  0  0  0  0  0  0
    1.5773   -2.6625    2.2052 H   0  0  0  0  0  0  0  0  0  0  0  0
    2.2258    3.4739    0.2042 H   0  0  0  0  0  0  0  0  0  0  0  0
    3.0870    1.1491   -2.1436 H   0  0  0  0  0  0  0  0  0  0  0  0
    3.1226    0.8188    2.1580 H   0  0  0  0  0  0  0  0  0  0  0  0
    5.4456    0.4259   -2.2100 H   0  0  0  0  0  0  0  0  0  0  0  0
    5.4812    0.0975    2.0744 H   0  0  0  0  0  0  0  0  0  0  0  0
    6.6488   -0.1015   -0.1055 H   0  0  0  0  0  0  0  0  0  0  0  0
  1  8  1  0  0  0  0
  1 10  1  0  0  0  0
  2 13  1  0  0  0  0
  2 16  1  0  0  0  0
  3  7  1  0  0  0  0
  3 42  1  0  0  0  0
  4 12  1  0  0  0  0
  4 25  1  0  0  0  0
  5 25  2  0  0  0  0
  6  7  1  0  0  0  0
  6  8  1  0  0  0  0
  6 15  1  0  0  0  0
  6 31  1  0  0  0  0
  7  9  1  0  0  0  0
  7 32  1  0  0  0  0
  8 17  1  0  0  0  0
  8 33  1  0  0  0  0
  9 10  2  0  0  0  0
  9 12  1  0  0  0  0
 10 11  1  0  0  0  0
 11 13  2  0  0  0  0
 11 18  1  0  0  0  0
 12 14  2  0  0  0  0
 13 14  1  0  0  0  0
 14 19  1  0  0  0  0
 15 34  1  0  0  0  0
 15 35  1  0  0  0  0
 15 36  1  0  0  0  0
 16 20  1  0  0  0  0
 16 21  1  0  0  0  0
 16 22  1  0  0  0  0
 17 37  1  0  0  0  0
 17 38  1  0  0  0  0
 17 39  1  0  0  0  0
 18 20  2  0  0  0  0
 18 40  1  0  0  0  0
 19 23  2  0  0  0  0
 19 24  1  0  0  0  0
 20 41  1  0  0  0  0
 21 43  1  0  0  0  0
 21 44  1  0  0  0  0
 21 45  1  0  0  0  0
 22 46  1  0  0  0  0
 22 47  1  0  0  0  0
 22 48  1  0  0  0  0
 23 25  1  0  0  0  0
 23 49  1  0  0  0  0
 24 26  2  0  0  0  0
 24 27  1  0  0  0  0
 26 28  1  0  0  0  0
 26 50  1  0  0  0  0
 27 29  2  0  0  0  0
 27 51  1  0  0  0  0
 28 30  2  0  0  0  0
 28 52  1  0  0  0  0
 29 30  1  0  0  0  0
 29 53  1  0  0  0  0
 30 54  1  0  0  0  0
M  END
> <PUBCHEM_COMPOUND_CID>
72412

> <PUBCHEM_CONFORMER_RMSD>
0.6

> <PUBCHEM_CONFORMER_DIVERSEORDER>
2
1

> <PUBCHEM_MMFF94_PARTIAL_CHARGES>
34
1 -0.36
10 0.08
11 0.03
12 0.08
13 0.08
14 0.03
16 0.42
18 -0.18
19 -0.06
2 -0.36
20 -0.29
23 -0.14
24 0.03
25 0.71
26 -0.15
27 -0.15
28 -0.15
29 -0.15
3 -0.68
30 -0.15
4 -0.23
40 0.15
41 0.15
42 0.4
49 0.15
5 -0.57
50 0.15
51 0.15
52 0.15
53 0.15
54 0.15
7 0.42
8 0.28
9 -0.14

> <PUBCHEM_EFFECTIVE_ROTOR_COUNT>
2.2

> <PUBCHEM_PHARMACOPHORE_FEATURES>
11
1 1 acceptor
1 2 acceptor
1 3 acceptor
1 3 donor
1 5 acceptor
3 16 21 22 hydrophobe
6 1 6 7 8 9 10 rings
6 2 11 13 16 18 20 rings
6 24 26 27 28 29 30 rings
6 4 12 14 19 23 25 rings
6 9 10 11 12 13 14 rings

> <PUBCHEM_HEAVY_ATOM_COUNT>
30

> <PUBCHEM_ATOM_DEF_STEREO_COUNT>
3

> <PUBCHEM_ATOM_UDEF_STEREO_COUNT>
0

> <PUBCHEM_BOND_DEF_STEREO_COUNT>
0

> <PUBCHEM_BOND_UDEF_STEREO_COUNT>
0

> <PUBCHEM_ISOTOPIC_ATOM_COUNT>
0

> <PUBCHEM_COMPONENT_COUNT>
1

> <PUBCHEM_CACTVS_TAUTO_COUNT>
1

> <PUBCHEM_CONFORMER_ID>
00011ADC00000002

> <PUBCHEM_MMFF94_ENERGY>
112.3502

> <PUBCHEM_FEATURE_SELFOVERLAP>
55.902

> <PUBCHEM_SHAPE_FINGERPRINT>
10006869 2 18269264673535389295
10675989 125 17254259139266367781
10693767 8 18059568070986901303
10906281 52 18261690219536058273
10967382 1 18411417293416485919
1100329 8 18195245748300970618
11513181 2 17987794082160722175
11578080 2 17024293133656979615
11646440 116 18130235950866889937
11963148 33 18262232339125986859
12236239 1 17822007627887362912
12422481 6 18120906492217196770
12553582 1 18339350963657755468
12592029 89 18409169943241992059
12788726 201 18337687385981640908
12838862 33 18339623608076632768
13140716 1 17905325483123343147
13402501 40 18411420634885224447
138480 1 18411419467186934835
14394314 77 18411417323772031376
14466204 15 18410851096452218264
14790565 3 18337962306005093908
14955137 171 18338242677153318195
15081414 286 18341343223024612099
15420108 30 18131072593870467679
15927050 60 17547856712260704236
1601671 61 18410292523064988713
16112460 7 18126578829923966681
16728300 4 17824514445141477594
17093844 170 18413390934759432422
17909252 39 17986406494666501582
19319366 153 17677885911418896458
19591789 44 18194122047807500711
20028762 73 17985829461162018799
20642791 35 18123475968748755631
20691752 17 17388556912497074240
20739085 24 18196114165345679729
20905425 154 18198628739985469414
21033648 29 17845640564383034009
21421861 104 18116149961385165074
22113638 7 18268142231166780420
2334 1 18410853239735831191
23558518 356 17902235511799194024
23559900 14 18052248497331604050
23566358 2 18338797793081156063
266924 87 18267020544665644412
3004659 81 18259989305814487820
3178227 256 18264503951875788507
3298306 158 18409727374225585519
335352 9 18411419553118202509
3380486 145 18263377931958274985
338550 245 18335140908050106374
34934 24 18413666907229318511
350125 39 18337392738049810229
3680242 22 18335422357130399850
4093350 32 17203056175455577463
463206 1 18410291445028561134
469060 322 18340219521783057240
5104073 3 18336835191518870883
5265222 85 18192721253146654900
59755656 215 18411986832388186670
6138700 20 18411423899630367566

> <PUBCHEM_SHAPE_MULTIPOLES>
588.04
10.51
4.66
0.97
4.79
0.07
-0.04
0.1
-0.12
-0.59
-0.17
-0.96
-0.16
0.26

> <PUBCHEM_SHAPE_SELFOVERLAP>
1309.336

> <PUBCHEM_SHAPE_VOLUME>
313.2

> <PUBCHEM_COORDINATE_TYPE>
2
5
10

$$$$
