313612
  -OEChem-02101610533D

 31 33  0     0  0  0  0  0  0999 V2000
   -1.1247   -0.4869   -0.7612 S   0  0  0  0  0  0  0  0  0  0  0  0
   -1.4103    0.5500   -1.7450 O   0  0  0  0  0  0  0  0  0  0  0  0
   -1.5478   -1.8584   -1.0196 O   0  0  0  0  0  0  0  0  0  0  0  0
    2.1053    2.7123    0.0454 O   0  0  0  0  0  0  0  0  0  0  0  0
    5.4713   -1.7132    0.4174 O   0  5  0  0  0  0  0  0  0  0  0  0
    5.5050    0.4775    0.5567 O   0  0  0  0  0  0  0  0  0  0  0  0
    0.9634    1.9749   -0.2165 N   0  0  0  0  0  0  0  0  0  0  0  0
    3.2162    1.9023    0.2080 N   0  0  0  0  0  0  0  0  0  0  0  0
    4.8835   -0.6013    0.3734 N   0  3  0  0  0  0  0  0  0  0  0  0
    0.5852   -0.4697   -0.4363 C   0  0  0  0  0  0  0  0  0  0  0  0
   -1.8768    0.0019    0.7762 C   0  0  0  0  0  0  0  0  0  0  0  0
    1.3483    0.6925   -0.2207 C   0  0  0  0  0  0  0  0  0  0  0  0
   -3.3608    0.0109    0.5753 C   0  0  0  0  0  0  0  0  0  0  0  0
    1.3197   -1.6675   -0.3688 C   0  0  0  0  0  0  0  0  0  0  0  0
    2.7803    0.6465    0.0491 C   0  0  0  0  0  0  0  0  0  0  0  0
    3.4958   -0.5634    0.1121 C   0  0  0  0  0  0  0  0  0  0  0  0
    2.7141   -1.7124   -0.1061 C   0  0  0  0  0  0  0  0  0  0  0  0
   -4.0991   -1.1424    0.8245 C   0  0  0  0  0  0  0  0  0  0  0  0
   -3.9928    1.1726    0.1411 C   0  0  0  0  0  0  0  0  0  0  0  0
   -5.4814   -1.1342    0.6377 C   0  0  0  0  0  0  0  0  0  0  0  0
   -5.3751    1.1807   -0.0456 C   0  0  0  0  0  0  0  0  0  0  0  0
   -6.1193    0.0274    0.2027 C   0  0  0  0  0  0  0  0  0  0  0  0
   -1.5076    0.9934    1.0540 H   0  0  0  0  0  0  0  0  0  0  0  0
   -1.5798   -0.7119    1.5511 H   0  0  0  0  0  0  0  0  0  0  0  0
    0.8175   -2.6220   -0.5200 H   0  0  0  0  0  0  0  0  0  0  0  0
    3.1774   -2.6986   -0.0771 H   0  0  0  0  0  0  0  0  0  0  0  0
   -3.6140   -2.0532    1.1651 H   0  0  0  0  0  0  0  0  0  0  0  0
   -3.4241    2.0775   -0.0549 H   0  0  0  0  0  0  0  0  0  0  0  0
   -6.0610   -2.0320    0.8313 H   0  0  0  0  0  0  0  0  0  0  0  0
   -5.8721    2.0851   -0.3843 H   0  0  0  0  0  0  0  0  0  0  0  0
   -7.1956    0.0339    0.0573 H   0  0  0  0  0  0  0  0  0  0  0  0
  1  2  2  0  0  0  0
  1  3  2  0  0  0  0
  1 10  1  0  0  0  0
  1 11  1  0  0  0  0
  4  7  1  0  0  0  0
  4  8  1  0  0  0  0
  5  9  1  0  0  0  0
  6  9  2  0  0  0  0
  7 12  2  0  0  0  0
  8 15  2  0  0  0  0
  9 16  1  0  0  0  0
 10 12  1  0  0  0  0
 10 14  2  0  0  0  0
 11 13  1  0  0  0  0
 11 23  1  0  0  0  0
 11 24  1  0  0  0  0
 12 15  1  0  0  0  0
 13 18  2  0  0  0  0
 13 19  1  0  0  0  0
 14 17  1  0  0  0  0
 14 25  1  0  0  0  0
 15 16  1  0  0  0  0
 16 17  2  0  0  0  0
 17 26  1  0  0  0  0
 18 20  1  0  0  0  0
 18 27  1  0  0  0  0
 19 21  2  0  0  0  0
 19 28  1  0  0  0  0
 20 22  2  0  0  0  0
 20 29  1  0  0  0  0
 21 22  1  0  0  0  0
 21 30  1  0  0  0  0
 22 31  1  0  0  0  0
M  CHG  2   5  -1   9   1
M  END
> <PUBCHEM_COMPOUND_CID>
313612

> <PUBCHEM_CONFORMER_RMSD>
0.6

> <PUBCHEM_CONFORMER_DIVERSEORDER>
1
5
9
3
2
4
10
8
6
7

> <PUBCHEM_MMFF94_PARTIAL_CHARGES>
29
1 1.2
10 -0.01
11 0.25
12 0.29
13 -0.14
14 -0.15
15 0.29
16 0.13
17 -0.15
18 -0.15
19 -0.15
2 -0.65
20 -0.15
21 -0.15
22 -0.15
25 0.15
26 0.15
27 0.15
28 0.15
29 0.15
3 -0.65
30 0.15
31 0.15
4 0.24
5 -0.52
6 -0.52
7 -0.41
8 -0.41
9 0.91

> <PUBCHEM_EFFECTIVE_ROTOR_COUNT>
4

> <PUBCHEM_PHARMACOPHORE_FEATURES>
10
1 2 acceptor
1 3 acceptor
1 5 acceptor
1 5 anion
1 6 acceptor
1 7 acceptor
1 8 acceptor
5 4 7 8 12 15 rings
6 10 12 14 15 16 17 rings
6 13 18 19 20 21 22 rings

> <PUBCHEM_HEAVY_ATOM_COUNT>
22

> <PUBCHEM_ATOM_DEF_STEREO_COUNT>
0

> <PUBCHEM_ATOM_UDEF_STEREO_COUNT>
0

> <PUBCHEM_BOND_DEF_STEREO_COUNT>
0

> <PUBCHEM_BOND_UDEF_STEREO_COUNT>
0

> <PUBCHEM_ISOTOPIC_ATOM_COUNT>
0

> <PUBCHEM_COMPONENT_COUNT>
1

> <PUBCHEM_CACTVS_TAUTO_COUNT>
1

> <PUBCHEM_CONFORMER_ID>
0004C90C00000001

> <PUBCHEM_MMFF94_ENERGY>
57.4015

> <PUBCHEM_FEATURE_SELFOVERLAP>
51.029

> <PUBCHEM_SHAPE_FINGERPRINT>
10 15 18411692219296129512
10354089 29 18342458140605217690
10366900 7 17385444314847314771
10688039 33 18041279876812633964
11045977 3 18187650223498092451
11089746 13 17489861648365984856
11370993 70 18408888455981935003
11545043 162 17458356264301898753
12107183 9 17690001137655027907
12166972 35 18131913771230344097
12236239 1 17704349961654912679
12251169 10 18413390951274949271
12507557 5 18413392025459748561
12507560 40 18335424595140468605
12616971 3 18060139868973209101
13140716 1 18341044241872044162
13583140 156 18335425677498893523
14341114 176 18335427884832248929
14790565 3 17686909727649768236
14955137 171 18342462521767258902
15196674 1 18410014359909178257
15238133 3 18262811678473175100
15475509 35 16950826056444425216
15527383 91 18334294270847573124
15788980 27 18273495680600274019
17492 89 17606978453772782339
17980427 23 16916486164909510084
1813 80 16877663465345666126
18785283 64 18189055455340943916
19489759 90 18113618976513840483
200 152 18201718444984690401
20715895 44 18055923087478903585
20739085 24 18260551164434863348
21033648 29 17559657474224296345
21065198 57 18334861645118436707
21267235 1 18340495495016871990
21315763 129 18409449181157783185
21344244 181 12757433787596634328
21637258 2 16081358640751022242
21682296 61 17986402091718420198
21709351 56 18411695496076523335
21792961 116 18042677318206711454
23402539 116 17917704700130802693
23559900 14 18335419093303265001
23622692 88 18202846556277568262
26918003 58 18409451384365132507
3286 77 18333735736241916285
33382 64 16153979141935201642
350125 39 18409168822276698068
351380 180 18409450284916756201
351380 3 13406795540780785651
3545911 37 18059859467037091991
4073 2 17894919580370902795
4214541 1 18408325471779129209
465052 167 18408606946545122570
5104073 3 18339369651450747467
67856867 119 18342456001896296241
7495541 125 18113623399665452052

> <PUBCHEM_SHAPE_MULTIPOLES>
412.31
13.13
2.03
0.92
4.72
0.58
0.2
-1.09
-3.42
-1.32
0.06
0.39
-0.1
0.27

> <PUBCHEM_SHAPE_SELFOVERLAP>
888.103

> <PUBCHEM_SHAPE_VOLUME>
226.5

> <PUBCHEM_COORDINATE_TYPE>
2
5
10

$$$$
