156398
  -OEChem-02101610533D

 36 38  0     1  0  0  0  0  0999 V2000
   -1.4519    1.9731    0.2757 O   0  0  0  0  0  0  0  0  0  0  0  0
   -5.0985   -2.1490   -0.1833 O   0  0  0  0  0  0  0  0  0  0  0  0
   -5.9357    0.4679    0.2299 O   0  0  0  0  0  0  0  0  0  0  0  0
    5.9771   -0.4178   -0.0803 O   0  0  0  0  0  0  0  0  0  0  0  0
    0.4053    0.5362   -0.4386 C   0  0  1  0  0  0  0  0  0  0  0  0
   -0.4122   -0.7375   -0.1892 C   0  0  0  0  0  0  0  0  0  0  0  0
   -0.0844    1.6234    0.5238 C   0  0  0  0  0  0  0  0  0  0  0  0
   -1.8751   -0.4080   -0.0749 C   0  0  0  0  0  0  0  0  0  0  0  0
    1.8948    0.2811   -0.3432 C   0  0  0  0  0  0  0  0  0  0  0  0
   -2.3050    0.9053    0.1588 C   0  0  0  0  0  0  0  0  0  0  0  0
   -2.8286   -1.4296   -0.1774 C   0  0  0  0  0  0  0  0  0  0  0  0
    2.7106    0.4904   -1.4546 C   0  0  0  0  0  0  0  0  0  0  0  0
    2.4495   -0.1625    0.8567 C   0  0  0  0  0  0  0  0  0  0  0  0
   -3.6690    1.1949    0.2481 C   0  0  0  0  0  0  0  0  0  0  0  0
   -4.1896   -1.1399   -0.0747 C   0  0  0  0  0  0  0  0  0  0  0  0
   -4.6094    0.1721    0.1337 C   0  0  0  0  0  0  0  0  0  0  0  0
    4.0828    0.2557   -1.3660 C   0  0  0  0  0  0  0  0  0  0  0  0
    3.8216   -0.3971    0.9454 C   0  0  0  0  0  0  0  0  0  0  0  0
    4.6383   -0.1881   -0.1660 C   0  0  0  0  0  0  0  0  0  0  0  0
    6.4792   -0.8704    1.1762 C   0  0  0  0  0  0  0  0  0  0  0  0
    0.1695    0.8776   -1.4578 H   0  0  0  0  0  0  0  0  0  0  0  0
   -0.1106   -1.2386    0.7387 H   0  0  0  0  0  0  0  0  0  0  0  0
   -0.2473   -1.4439   -1.0126 H   0  0  0  0  0  0  0  0  0  0  0  0
    0.0170    1.3291    1.5764 H   0  0  0  0  0  0  0  0  0  0  0  0
    0.5058    2.5378    0.3916 H   0  0  0  0  0  0  0  0  0  0  0  0
   -2.5008   -2.4536   -0.3433 H   0  0  0  0  0  0  0  0  0  0  0  0
    2.2929    0.8359   -2.3964 H   0  0  0  0  0  0  0  0  0  0  0  0
    1.8324   -0.3272    1.7356 H   0  0  0  0  0  0  0  0  0  0  0  0
   -3.9992    2.2178    0.4132 H   0  0  0  0  0  0  0  0  0  0  0  0
    4.7139    0.4202   -2.2351 H   0  0  0  0  0  0  0  0  0  0  0  0
    4.1873   -0.7395    1.9074 H   0  0  0  0  0  0  0  0  0  0  0  0
   -4.6264   -2.9873   -0.3257 H   0  0  0  0  0  0  0  0  0  0  0  0
   -6.4413   -0.3572    0.1283 H   0  0  0  0  0  0  0  0  0  0  0  0
    6.0650   -1.8477    1.4467 H   0  0  0  0  0  0  0  0  0  0  0  0
    6.3276   -0.1233    1.9627 H   0  0  0  0  0  0  0  0  0  0  0  0
    7.5604   -1.0016    1.0640 H   0  0  0  0  0  0  0  0  0  0  0  0
  1  7  1  0  0  0  0
  1 10  1  0  0  0  0
  2 15  1  0  0  0  0
  2 32  1  0  0  0  0
  3 16  1  0  0  0  0
  3 33  1  0  0  0  0
  4 19  1  0  0  0  0
  4 20  1  0  0  0  0
  5  6  1  0  0  0  0
  5  7  1  0  0  0  0
  5  9  1  0  0  0  0
  5 21  1  0  0  0  0
  6  8  1  0  0  0  0
  6 22  1  0  0  0  0
  6 23  1  0  0  0  0
  7 24  1  0  0  0  0
  7 25  1  0  0  0  0
  8 10  1  0  0  0  0
  8 11  2  0  0  0  0
  9 12  2  0  0  0  0
  9 13  1  0  0  0  0
 10 14  2  0  0  0  0
 11 15  1  0  0  0  0
 11 26  1  0  0  0  0
 12 17  1  0  0  0  0
 12 27  1  0  0  0  0
 13 18  2  0  0  0  0
 13 28  1  0  0  0  0
 14 16  1  0  0  0  0
 14 29  1  0  0  0  0
 15 16  2  0  0  0  0
 17 19  2  0  0  0  0
 17 30  1  0  0  0  0
 18 19  1  0  0  0  0
 18 31  1  0  0  0  0
 20 34  1  0  0  0  0
 20 35  1  0  0  0  0
 20 36  1  0  0  0  0
M  END
> <PUBCHEM_COMPOUND_CID>
156398

> <PUBCHEM_CONFORMER_RMSD>
0.6

> <PUBCHEM_CONFORMER_DIVERSEORDER>
1
7
2
5
6
4
3

> <PUBCHEM_MMFF94_PARTIAL_CHARGES>
28
1 -0.36
10 0.08
11 -0.15
12 -0.15
13 -0.15
14 -0.15
15 0.08
16 0.08
17 -0.15
18 -0.15
19 0.08
2 -0.53
20 0.28
26 0.15
27 0.15
28 0.15
29 0.15
3 -0.53
30 0.15
31 0.15
32 0.45
33 0.45
4 -0.36
5 0.14
6 0.14
7 0.28
8 -0.14
9 -0.14

> <PUBCHEM_EFFECTIVE_ROTOR_COUNT>
2.8

> <PUBCHEM_PHARMACOPHORE_FEATURES>
7
1 1 acceptor
1 2 donor
1 3 donor
1 4 acceptor
6 1 5 6 7 8 10 rings
6 8 10 11 14 15 16 rings
6 9 12 13 17 18 19 rings

> <PUBCHEM_HEAVY_ATOM_COUNT>
20

> <PUBCHEM_ATOM_DEF_STEREO_COUNT>
0

> <PUBCHEM_ATOM_UDEF_STEREO_COUNT>
1

> <PUBCHEM_BOND_DEF_STEREO_COUNT>
0

> <PUBCHEM_BOND_UDEF_STEREO_COUNT>
0

> <PUBCHEM_ISOTOPIC_ATOM_COUNT>
0

> <PUBCHEM_COMPONENT_COUNT>
1

> <PUBCHEM_CACTVS_TAUTO_COUNT>
12

> <PUBCHEM_CONFORMER_ID>
000262EE00000001

> <PUBCHEM_MMFF94_ENERGY>
68.375

> <PUBCHEM_FEATURE_SELFOVERLAP>
35.554

> <PUBCHEM_SHAPE_FINGERPRINT>
10 15 17417798562151536690
11046707 91 18411702110331472485
11315181 36 18412827992652472192
12107183 9 17540245446164861504
12166972 35 17894914040364497452
12236239 1 18113338609200822684
12616971 3 17822019704475433124
13167823 11 18114183038056780186
13288520 33 18411418405813015557
13533116 47 18113333095006250906
13668630 136 16732706038625945802
13760787 5 17458348562829476597
13862211 1 18341048618512686983
14251752 14 17895186676023900885
14386348 63 17489872626608218620
15196674 1 18341333400524278217
15788980 27 17894633651375838564
17349148 13 18040156206209393874
17804303 29 18271809064228674465
17834072 33 18186804690540017116
17857418 61 18259701194685789826
1813 80 17313956199778022262
18186145 218 14201398308886667805
18681886 176 18335701676550154416
18785283 64 16987703775082030424
19141452 34 17275385438985864079
19489759 90 18343864407508398059
19784866 240 17676487225022106150
200 152 17240482494423477596
20279233 1 17418381289416382524
20374829 77 18413108381302929165
20612939 158 16732990847087823006
20645477 70 15213293089582671704
21033648 29 16271917169270493091
21267235 1 18410580621551429611
22224240 67 16271919419975813166
22646028 1 18186802491247645260
22854114 59 16200434667264227484
2297311 6 18130797741511638588
23035841 295 18408041797045972595
23175994 123 16845576422292718417
23366157 5 18046626986494785197
23402539 116 18411978070332766087
23536379 177 17095242505920699933
23557571 272 17988647341886118816
23559900 14 18340764939816794416
26918003 58 16630527340535019923
29717793 49 18040156202046477534
3004659 81 18334303067563016366
314173 85 17775013387870827785
335352 9 18412543220085097829
34797466 226 17917722331473206612
351380 3 18187080663236548634
4214541 1 18410856546934567093
474 4 17315649649385113380
5104073 3 18199476626601272137
5385378 56 18128267697001087363
542803 24 17967536778582474534
559249 180 18333446530566938667
573450 72 18335419045409778009
59755656 215 18271250421974951430
67856867 119 18262802998835237628
7471813 234 17821451261828988260
7495541 125 18130785690012832280

> <PUBCHEM_SHAPE_MULTIPOLES>
388.11
13.95
1.5
1.02
5.8
0.04
0.13
4.43
-1.74
-1.79
-0.1
1.35
-0.05
-1

> <PUBCHEM_SHAPE_SELFOVERLAP>
847.887

> <PUBCHEM_SHAPE_VOLUME>
210.7

> <PUBCHEM_COORDINATE_TYPE>
2
5
10

$$$$
