5458761
  -OEChem-02101610533D

 56 57  0     0  0  0  0  0  0999 V2000
    3.9553    0.6746   -0.6347 O   0  0  0  0  0  0  0  0  0  0  0  0
   -2.1579    0.1472   -1.7974 O   0  0  0  0  0  0  0  0  0  0  0  0
   -4.8592   -1.4237    1.8271 O   0  0  0  0  0  0  0  0  0  0  0  0
   -3.2354    3.3208   -1.9116 O   0  0  0  0  0  0  0  0  0  0  0  0
   -1.2992    3.2463   -0.7234 O   0  0  0  0  0  0  0  0  0  0  0  0
    1.4275   -3.0028   -0.0174 C   0  0  0  0  0  0  0  0  0  0  0  0
    0.1458   -3.8287    0.1393 C   0  0  0  0  0  0  0  0  0  0  0  0
    1.2841   -1.5709    0.5146 C   0  0  0  0  0  0  0  0  0  0  0  0
   -1.0368   -3.1764   -0.5392 C   0  0  0  0  0  0  0  0  0  0  0  0
    2.5048   -0.7230    0.3013 C   0  0  0  0  0  0  0  0  0  0  0  0
   -3.3341   -2.0607   -0.4839 C   0  0  0  0  0  0  0  0  0  0  0  0
   -2.1335   -2.7427    0.1127 C   0  0  0  0  0  0  0  0  0  0  0  0
   -3.5049   -0.6454    0.0079 C   0  0  0  0  0  0  0  0  0  0  0  0
   -0.9119   -3.0021   -2.0289 C   0  0  0  0  0  0  0  0  0  0  0  0
   -2.9021    0.3983   -0.6813 C   0  0  0  0  0  0  0  0  0  0  0  0
    3.5799   -0.5892    1.1857 C   0  0  0  0  0  0  0  0  0  0  0  0
   -4.2642   -0.4048    1.1453 C   0  0  0  0  0  0  0  0  0  0  0  0
    2.7581    0.0499   -0.7873 C   0  0  0  0  0  0  0  0  0  0  0  0
   -3.0611    1.7066   -0.2245 C   0  0  0  0  0  0  0  0  0  0  0  0
   -3.8219    1.9591    0.9171 C   0  0  0  0  0  0  0  0  0  0  0  0
    4.4488    0.2803    0.5684 C   0  0  0  0  0  0  0  0  0  0  0  0
   -4.4235    0.9035    1.6020 C   0  0  0  0  0  0  0  0  0  0  0  0
   -4.0101    3.3499    1.4300 C   0  0  0  0  0  0  0  0  0  0  0  0
    5.6931    0.7404    1.0578 C   0  0  0  0  0  0  0  0  0  0  0  0
   -2.4302    2.8084   -0.9435 C   0  0  0  0  0  0  0  0  0  0  0  0
    6.7533    1.0645    0.2802 C   0  0  0  0  0  0  0  0  0  0  0  0
    8.0311    1.5618    0.9044 C   0  0  0  0  0  0  0  0  0  0  0  0
    6.8044    0.9589   -1.2209 C   0  0  0  0  0  0  0  0  0  0  0  0
    2.2407   -3.5104    0.5172 H   0  0  0  0  0  0  0  0  0  0  0  0
    1.7309   -2.9778   -1.0720 H   0  0  0  0  0  0  0  0  0  0  0  0
    0.2999   -4.8298   -0.2808 H   0  0  0  0  0  0  0  0  0  0  0  0
   -0.0583   -3.9703    1.2080 H   0  0  0  0  0  0  0  0  0  0  0  0
    1.0538   -1.6046    1.5874 H   0  0  0  0  0  0  0  0  0  0  0  0
    0.4396   -1.0601    0.0366 H   0  0  0  0  0  0  0  0  0  0  0  0
   -4.2260   -2.6632   -0.2714 H   0  0  0  0  0  0  0  0  0  0  0  0
   -3.3169   -2.0452   -1.5774 H   0  0  0  0  0  0  0  0  0  0  0  0
   -2.1711   -2.8936    1.1907 H   0  0  0  0  0  0  0  0  0  0  0  0
   -0.2957   -3.8043   -2.4518 H   0  0  0  0  0  0  0  0  0  0  0  0
   -0.4282   -2.0500   -2.2671 H   0  0  0  0  0  0  0  0  0  0  0  0
   -1.8643   -3.0642   -2.5598 H   0  0  0  0  0  0  0  0  0  0  0  0
    3.7136   -1.0613    2.1494 H   0  0  0  0  0  0  0  0  0  0  0  0
    2.2329    0.2630   -1.7070 H   0  0  0  0  0  0  0  0  0  0  0  0
   -5.0187    1.0890    2.4929 H   0  0  0  0  0  0  0  0  0  0  0  0
   -3.0439    3.8034    1.6745 H   0  0  0  0  0  0  0  0  0  0  0  0
   -4.5228    3.9676    0.6854 H   0  0  0  0  0  0  0  0  0  0  0  0
   -4.6167    3.3697    2.3420 H   0  0  0  0  0  0  0  0  0  0  0  0
    5.7978    0.8077    2.1384 H   0  0  0  0  0  0  0  0  0  0  0  0
   -1.7931    0.9689   -2.1625 H   0  0  0  0  0  0  0  0  0  0  0  0
   -4.3986   -2.2612    1.6648 H   0  0  0  0  0  0  0  0  0  0  0  0
    8.2858    2.5499    0.5071 H   0  0  0  0  0  0  0  0  0  0  0  0
    8.8547    0.8744    0.6856 H   0  0  0  0  0  0  0  0  0  0  0  0
    7.9544    1.6525    1.9930 H   0  0  0  0  0  0  0  0  0  0  0  0
    6.1078    0.2213   -1.6268 H   0  0  0  0  0  0  0  0  0  0  0  0
    6.6003    1.9332   -1.6757 H   0  0  0  0  0  0  0  0  0  0  0  0
    7.8004    0.6357   -1.5444 H   0  0  0  0  0  0  0  0  0  0  0  0
   -2.8051    4.0608   -2.3908 H   0  0  0  0  0  0  0  0  0  0  0  0
  1 18  1  0  0  0  0
  1 21  1  0  0  0  0
  2 15  1  0  0  0  0
  2 48  1  0  0  0  0
  3 17  1  0  0  0  0
  3 49  1  0  0  0  0
  4 25  1  0  0  0  0
  4 56  1  0  0  0  0
  5 25  2  0  0  0  0
  6  7  1  0  0  0  0
  6  8  1  0  0  0  0
  6 29  1  0  0  0  0
  6 30  1  0  0  0  0
  7  9  1  0  0  0  0
  7 31  1  0  0  0  0
  7 32  1  0  0  0  0
  8 10  1  0  0  0  0
  8 33  1  0  0  0  0
  8 34  1  0  0  0  0
  9 12  2  0  0  0  0
  9 14  1  0  0  0  0
 10 16  1  0  0  0  0
 10 18  2  0  0  0  0
 11 12  1  0  0  0  0
 11 13  1  0  0  0  0
 11 35  1  0  0  0  0
 11 36  1  0  0  0  0
 12 37  1  0  0  0  0
 13 15  1  0  0  0  0
 13 17  2  0  0  0  0
 14 38  1  0  0  0  0
 14 39  1  0  0  0  0
 14 40  1  0  0  0  0
 15 19  2  0  0  0  0
 16 21  2  0  0  0  0
 16 41  1  0  0  0  0
 17 22  1  0  0  0  0
 18 42  1  0  0  0  0
 19 20  1  0  0  0  0
 19 25  1  0  0  0  0
 20 22  2  0  0  0  0
 20 23  1  0  0  0  0
 21 24  1  0  0  0  0
 22 43  1  0  0  0  0
 23 44  1  0  0  0  0
 23 45  1  0  0  0  0
 23 46  1  0  0  0  0
 24 26  2  0  0  0  0
 24 47  1  0  0  0  0
 26 27  1  0  0  0  0
 26 28  1  0  0  0  0
 27 50  1  0  0  0  0
 27 51  1  0  0  0  0
 27 52  1  0  0  0  0
 28 53  1  0  0  0  0
 28 54  1  0  0  0  0
 28 55  1  0  0  0  0
M  END
> <PUBCHEM_COMPOUND_CID>
5458761

> <PUBCHEM_CONFORMER_RMSD>
1

> <PUBCHEM_CONFORMER_DIVERSEORDER>
21
239
147
283
104
227
253
107
143
174
190
262
164
114
198
5
81
157
51
191
204
95
32
137
126
127
284
171
212
106
53
232
224
30
87
2
36
140
203
119
89
111
60
24
207
175
10
200
75
240
59
263
27
257
159
241
100
269
132
186
133
226
272
202
182
141
40
264
288
184
79
12
70
1
65
248
237
153
98
28
9
192
166
128
109
217
55
222
218
44
152
247
125
102
130
233
161
228
122
201
134
105
33
209
49
260
50
210
215
62
13
258
149
39
45
54
255
254
151
234
43
35
160
246
195
281
220
117
129
236
251
146
167
46
73
52
180
185
199
223
110
268
238
82
131
168
64
11
68
276
165
101
34
169
113
162
230
86
71
181
77
58
196
189
22
194
183
145
170
154
14
225
37
18
31
286
229
279
280
235
277
139
273
245
252
155
76
216
124
118
63
120
242
176
19
206
72
244
108
78
8
96
48
270
85
4
163
275
179
115
274
26
150
57
231
91
121
197
25
56
187
188
69
271
97
84
67
74
205
16
142
135
178
7
250
193
287
144
158
112
148
156
214
177
261
266
259
219
83
213
138
221
136
278
3
17
41
99
172
93
88
29
243
42
92
249
66
211
38
285
267
6
173
103
94
23
80
15
256
265
20
61
208
90
282
116
47
123

> <PUBCHEM_MMFF94_PARTIAL_CHARGES>
35
1 -0.28
10 -0.18
11 0.28
12 -0.29
13 -0.14
14 0.14
15 0.08
16 -0.15
17 0.08
18 -0.01
19 0.09
2 -0.53
20 -0.14
21 0.09
22 -0.15
23 0.14
24 -0.11
25 0.63
26 -0.28
27 0.14
28 0.14
3 -0.53
37 0.15
4 -0.65
41 0.15
42 0.15
43 0.15
47 0.15
48 0.45
49 0.45
5 -0.57
56 0.5
7 0.14
8 0.18
9 -0.28

> <PUBCHEM_EFFECTIVE_ROTOR_COUNT>
8

> <PUBCHEM_PHARMACOPHORE_FEATURES>
11
1 1 acceptor
1 14 hydrophobe
1 2 donor
1 3 donor
1 4 acceptor
1 5 acceptor
3 26 27 28 hydrophobe
3 4 5 25 anion
4 6 7 8 9 hydrophobe
5 1 10 16 18 21 rings
6 13 15 17 19 20 22 rings

> <PUBCHEM_HEAVY_ATOM_COUNT>
28

> <PUBCHEM_ATOM_DEF_STEREO_COUNT>
0

> <PUBCHEM_ATOM_UDEF_STEREO_COUNT>
0

> <PUBCHEM_BOND_DEF_STEREO_COUNT>
1

> <PUBCHEM_BOND_UDEF_STEREO_COUNT>
0

> <PUBCHEM_ISOTOPIC_ATOM_COUNT>
0

> <PUBCHEM_COMPONENT_COUNT>
1

> <PUBCHEM_CACTVS_TAUTO_COUNT>
25

> <PUBCHEM_CONFORMER_ID>
00534B4900000015

> <PUBCHEM_MMFF94_ENERGY>
62.9905

> <PUBCHEM_FEATURE_SELFOVERLAP>
55.9

> <PUBCHEM_SHAPE_FINGERPRINT>
10087517 78 18267577091323298468
10165383 225 18059863878543687467
10369192 42 17775294884237998147
10670039 82 18340764935827736494
10675989 125 17037799366847262060
10816530 145 17532926323713505694
10864689 126 18269554949539140024
11135609 187 18193827160128973293
11200772 48 10375329798488887019
12390115 104 18413674612653828930
12422481 6 18045198480999747098
12596602 18 16732977652679355304
12978246 48 18334859432741040604
14251764 75 18057331574131070393
14347329 18 18343013420179689314
14395042 24 18264219183282381763
14765038 42 18130238081097173128
14856354 85 18263364845024080094
14950920 106 16805893994994146976
15021287 119 17385434454483527004
15183329 4 12751238100025358932
15604295 49 17912360138220190656
17899979 19 18262230140639482725
20766409 102 17903354055446008180
21756936 100 18201997746402254038
21796203 349 17827393103905936329
21927370 108 18118968242043702211
24771293 8 18342470240504134651
25019877 29 17345208881331895231
3459 39 18200292374045493642
3610482 184 18117572927770071438
397830 11 11530760462477543518
4197921 191 18115025329232152454
4403749 210 18261380162159329844
469060 322 18336554931706876315
50677037 204 18118395392401381180
5252454 2 18201996590987668363
5283173 99 18130787919311602274
550186 7 18343305903115453030
6608658 132 18268976747560700279
6700243 42 17191548940300008518
7288768 16 18333737888174032587
7808743 9 18412261761634297474

> <PUBCHEM_SHAPE_MULTIPOLES>
546.88
15.69
4.65
1.61
33.74
1.14
0.28
-11.97
-4.34
-5.19
0.95
-1.14
-0.44
0.1

> <PUBCHEM_SHAPE_SELFOVERLAP>
1149.186

> <PUBCHEM_SHAPE_VOLUME>
311.2

> <PUBCHEM_COORDINATE_TYPE>
2
5
10

$$$$
