5339887
  -OEChem-02101610503D

 36 39  0     0  0  0  0  0  0999 V2000
   -4.8835   -2.9027   -0.7146 Br  0  0  0  0  0  0  0  0  0  0  0  0
   -4.4847    3.5620    0.8128 Br  0  0  0  0  0  0  0  0  0  0  0  0
   -7.0062   -0.7041   -0.8030 O   0  0  0  0  0  0  0  0  0  0  0  0
   -6.8865    1.8623   -0.2102 O   0  0  0  0  0  0  0  0  0  0  0  0
    3.4923    1.3708   -0.3548 N   0  0  0  0  0  0  0  0  0  0  0  0
    3.3936   -2.0041    0.4638 N   0  0  0  0  0  0  0  0  0  0  0  0
    2.0467   -2.2200    0.5303 N   0  0  0  0  0  0  0  0  0  0  0  0
    1.4878    0.0644   -0.0178 N   0  0  0  0  0  0  0  0  0  0  0  0
   -0.1674   -1.5624    0.3945 N   0  0  0  0  0  0  0  0  0  0  0  0
   -1.1725   -0.6979    0.1943 N   0  0  0  0  0  0  0  0  0  0  0  0
    5.0785   -0.1862    0.0071 C   0  0  0  0  0  0  0  0  0  0  0  0
    3.7989   -0.7553    0.1570 C   0  0  0  0  0  0  0  0  0  0  0  0
    4.8599    1.1606   -0.3170 C   0  0  0  0  0  0  0  0  0  0  0  0
    2.8395    0.2062   -0.0662 C   0  0  0  0  0  0  0  0  0  0  0  0
    6.4017   -0.6568    0.1090 C   0  0  0  0  0  0  0  0  0  0  0  0
    5.9115    2.0560   -0.5436 C   0  0  0  0  0  0  0  0  0  0  0  0
    1.1449   -1.1747    0.2864 C   0  0  0  0  0  0  0  0  0  0  0  0
    7.4595    0.2313   -0.1158 C   0  0  0  0  0  0  0  0  0  0  0  0
    7.2162    1.5655   -0.4368 C   0  0  0  0  0  0  0  0  0  0  0  0
   -3.5816   -0.4886    0.1682 C   0  0  0  0  0  0  0  0  0  0  0  0
   -2.3335   -1.2434    0.3394 C   0  0  0  0  0  0  0  0  0  0  0  0
   -4.7015   -1.0943   -0.2672 C   0  0  0  0  0  0  0  0  0  0  0  0
   -3.5341    0.9242    0.4913 C   0  0  0  0  0  0  0  0  0  0  0  0
   -5.9316   -0.2643   -0.4172 C   0  0  0  0  0  0  0  0  0  0  0  0
   -4.5800    1.7523    0.3900 C   0  0  0  0  0  0  0  0  0  0  0  0
   -5.8677    1.1993   -0.0798 C   0  0  0  0  0  0  0  0  0  0  0  0
    3.0479    2.2541   -0.5643 H   0  0  0  0  0  0  0  0  0  0  0  0
    4.0108   -2.7880    0.6483 H   0  0  0  0  0  0  0  0  0  0  0  0
    6.6069   -1.6939    0.3585 H   0  0  0  0  0  0  0  0  0  0  0  0
    5.7253    3.0953   -0.7935 H   0  0  0  0  0  0  0  0  0  0  0  0
    1.7259   -3.1546    0.7603 H   0  0  0  0  0  0  0  0  0  0  0  0
    8.4833   -0.1254   -0.0389 H   0  0  0  0  0  0  0  0  0  0  0  0
    8.0540    2.2370   -0.6072 H   0  0  0  0  0  0  0  0  0  0  0  0
   -0.3734   -2.5290    0.6316 H   0  0  0  0  0  0  0  0  0  0  0  0
   -2.4406   -2.3122    0.5973 H   0  0  0  0  0  0  0  0  0  0  0  0
   -2.5868    1.3227    0.8469 H   0  0  0  0  0  0  0  0  0  0  0  0
  1 22  1  0  0  0  0
  2 25  1  0  0  0  0
  3 24  2  0  0  0  0
  4 26  2  0  0  0  0
  5 13  1  0  0  0  0
  5 14  1  0  0  0  0
  5 27  1  0  0  0  0
  6  7  1  0  0  0  0
  6 12  1  0  0  0  0
  6 28  1  0  0  0  0
  7 17  1  0  0  0  0
  7 31  1  0  0  0  0
  8 14  1  0  0  0  0
  8 17  2  0  0  0  0
  9 10  1  0  0  0  0
  9 17  1  0  0  0  0
  9 34  1  0  0  0  0
 10 21  2  0  0  0  0
 11 12  1  0  0  0  0
 11 13  1  0  0  0  0
 11 15  2  0  0  0  0
 12 14  2  0  0  0  0
 13 16  2  0  0  0  0
 15 18  1  0  0  0  0
 15 29  1  0  0  0  0
 16 19  1  0  0  0  0
 16 30  1  0  0  0  0
 18 19  2  0  0  0  0
 18 32  1  0  0  0  0
 19 33  1  0  0  0  0
 20 21  1  0  0  0  0
 20 22  2  0  0  0  0
 20 23  1  0  0  0  0
 21 35  1  0  0  0  0
 22 24  1  0  0  0  0
 23 25  2  0  0  0  0
 23 36  1  0  0  0  0
 24 26  1  0  0  0  0
 25 26  1  0  0  0  0
M  END
> <PUBCHEM_COMPOUND_CID>
5339887

> <PUBCHEM_CONFORMER_RMSD>
0.8

> <PUBCHEM_CONFORMER_DIVERSEORDER>
1
40
41
26
31
8
28
25
29
12
18
9
42
15
17
33
10
22
27
30
21
35
5
3
24
20
34
23
37
32
13
38
14
19
2
39
36
11
16
7
4
6

> <PUBCHEM_MMFF94_PARTIAL_CHARGES>
35
1 -0.11
10 -0.49
12 0.08
13 -0.15
14 -0.03
15 -0.15
16 -0.15
17 0.55
18 -0.15
19 -0.15
2 -0.11
20 0.01
21 0.38
22 0.12
23 -0.15
24 0.56
25 0.12
26 0.56
27 0.27
28 0.4
29 0.15
3 -0.57
30 0.15
31 0.4
32 0.15
33 0.15
34 0.4
35 0.06
36 0.15
4 -0.57
5 0.03
6 -0.48
7 -0.45
8 -0.58
9 -0.41

> <PUBCHEM_EFFECTIVE_ROTOR_COUNT>
3.4

> <PUBCHEM_PHARMACOPHORE_FEATURES>
15
1 1 hydrophobe
1 10 acceptor
1 2 hydrophobe
1 3 acceptor
1 4 acceptor
1 5 cation
1 5 donor
1 6 donor
1 7 donor
1 9 donor
4 7 8 9 17 cation
5 5 11 12 13 14 rings
6 11 13 15 16 18 19 rings
6 20 22 23 24 25 26 rings
6 6 7 8 12 14 17 rings

> <PUBCHEM_HEAVY_ATOM_COUNT>
26

> <PUBCHEM_ATOM_DEF_STEREO_COUNT>
0

> <PUBCHEM_ATOM_UDEF_STEREO_COUNT>
0

> <PUBCHEM_BOND_DEF_STEREO_COUNT>
1

> <PUBCHEM_BOND_UDEF_STEREO_COUNT>
0

> <PUBCHEM_ISOTOPIC_ATOM_COUNT>
0

> <PUBCHEM_COMPONENT_COUNT>
1

> <PUBCHEM_CACTVS_TAUTO_COUNT>
190

> <PUBCHEM_CONFORMER_ID>
00517AEF00000001

> <PUBCHEM_MMFF94_ENERGY>
66.0088

> <PUBCHEM_FEATURE_SELFOVERLAP>
77.97

> <PUBCHEM_SHAPE_FINGERPRINT>
100830 39 18411982455473607269
10595046 47 18410853248700429155
10669705 176 18413392029496311622
10670039 82 18412540998917391609
10730089 173 18343021090832880649
11315181 36 18260267478034869263
11315621 246 17489015085254517719
11719270 70 18060417998276703446
12107183 9 17833829374507846955
12236239 1 18412261757386789766
13167372 99 18409167693296066792
13533116 47 16732972086665549090
13690498 29 17916577786923577575
13785724 45 17832419792534024986
14251764 18 18260828202667587050
14394314 77 18338522933230911001
14933364 13 18410013247132697495
15183329 4 18411983550774540656
15419008 145 18115294576495526688
1577012 14 18408601461307324706
15876981 60 18339080505915868149
15961568 22 18408888416810323341
16989713 51 17487891418725901135
16993438 75 18042696185154765291
18608769 82 18263369234675913555
19427546 20 18411697729976942991
19611394 137 17896897641092830675
20281389 69 17894628136949086396
20511986 3 18261381235768427325
21033648 144 17967808332707614095
21298829 104 18408326566368613789
21315763 28 18411136939785098026
23035841 295 9439406826027675004
23559900 14 18272641386067814145
2838139 119 18411701001939967628
335352 9 18335424570014477190
34797466 226 17775011206101015231
397830 11 13407373931162878180
4073 2 18040439922943483298
4325135 7 18412261748986538567
445580 37 18341901796010810909
465052 167 8502659203832132568
504579 68 18341883122073497663
5104073 3 17894916200105202923
6328613 192 18260835942584192292
9831232 110 7997153265669930368
99344 41 18412261710453548162

> <PUBCHEM_SHAPE_MULTIPOLES>
505.33
22.99
3.02
0.77
10.62
1.13
-0.01
7.88
-3.89
-4.43
0.24
-0.24
0.02
-2.05

> <PUBCHEM_SHAPE_SELFOVERLAP>
1097.891

> <PUBCHEM_SHAPE_VOLUME>
282.1

> <PUBCHEM_COORDINATE_TYPE>
2
5
10

$$$$
