3578419
  -OEChem-02101610503D

 49 51  0     0  0  0  0  0  0999 V2000
    1.0967   -2.0971   -0.0030 S   0  0  0  0  0  0  0  0  0  0  0  0
    0.3340    1.4978    2.9877 O   0  0  0  0  0  0  0  0  0  0  0  0
   -1.4252   -3.2155   -0.1172 O   0  0  0  0  0  0  0  0  0  0  0  0
   -1.1615   -1.0883    0.8725 N   0  0  0  0  0  0  0  0  0  0  0  0
   -0.0329    2.4032    0.9283 N   0  0  0  0  0  0  0  0  0  0  0  0
    3.8160    1.3294   -1.5166 C   0  0  0  0  0  0  0  0  0  0  0  0
    3.6472    1.9763   -0.1360 C   0  0  0  0  0  0  0  0  0  0  0  0
    4.8754    0.2260   -1.5984 C   0  0  0  0  0  0  0  0  0  0  0  0
    3.4237    1.0227    1.0373 C   0  0  0  0  0  0  0  0  0  0  0  0
    4.3098   -1.2011   -1.6609 C   0  0  0  0  0  0  0  0  0  0  0  0
    2.3462    0.0159    0.7789 C   0  0  0  0  0  0  0  0  0  0  0  0
    3.8481   -1.7885   -0.3253 C   0  0  0  0  0  0  0  0  0  0  0  0
    2.5529   -1.2098    0.1656 C   0  0  0  0  0  0  0  0  0  0  0  0
    0.9661    0.2046    1.1121 C   0  0  0  0  0  0  0  0  0  0  0  0
    0.1826   -0.8646    0.7441 C   0  0  0  0  0  0  0  0  0  0  0  0
    0.4104    1.3723    1.7522 C   0  0  0  0  0  0  0  0  0  0  0  0
   -1.8721   -2.2278    0.4586 C   0  0  0  0  0  0  0  0  0  0  0  0
   -3.3595   -2.1306    0.7632 C   0  0  0  0  0  0  0  0  0  0  0  0
   -4.1315   -1.4952   -0.3945 C   0  0  0  0  0  0  0  0  0  0  0  0
   -3.6994   -0.0817   -0.6974 C   0  0  0  0  0  0  0  0  0  0  0  0
   -4.3282    0.9741   -0.0556 C   0  0  0  0  0  0  0  0  0  0  0  0
   -2.6814    0.1371   -1.6125 C   0  0  0  0  0  0  0  0  0  0  0  0
   -3.9291    2.2810   -0.3359 C   0  0  0  0  0  0  0  0  0  0  0  0
   -2.2822    1.4439   -1.8929 C   0  0  0  0  0  0  0  0  0  0  0  0
   -2.9061    2.5159   -1.2545 C   0  0  0  0  0  0  0  0  0  0  0  0
    2.8486    0.9684   -1.8855 H   0  0  0  0  0  0  0  0  0  0  0  0
    4.1076    2.1325   -2.2064 H   0  0  0  0  0  0  0  0  0  0  0  0
    2.8061    2.6788   -0.1954 H   0  0  0  0  0  0  0  0  0  0  0  0
    4.5341    2.5849    0.0818 H   0  0  0  0  0  0  0  0  0  0  0  0
    5.6160    0.3176   -0.7959 H   0  0  0  0  0  0  0  0  0  0  0  0
    5.4283    0.3808   -2.5348 H   0  0  0  0  0  0  0  0  0  0  0  0
    3.1828    1.6109    1.9314 H   0  0  0  0  0  0  0  0  0  0  0  0
    4.3622    0.5103    1.2797 H   0  0  0  0  0  0  0  0  0  0  0  0
    5.1150   -1.8478   -2.0343 H   0  0  0  0  0  0  0  0  0  0  0  0
    3.5055   -1.2549   -2.4050 H   0  0  0  0  0  0  0  0  0  0  0  0
    4.6279   -1.6535    0.4340 H   0  0  0  0  0  0  0  0  0  0  0  0
    3.7429   -2.8746   -0.4467 H   0  0  0  0  0  0  0  0  0  0  0  0
   -1.6843   -0.3434    1.3267 H   0  0  0  0  0  0  0  0  0  0  0  0
   -3.7337   -3.1436    0.9504 H   0  0  0  0  0  0  0  0  0  0  0  0
   -3.5087   -1.5607    1.6881 H   0  0  0  0  0  0  0  0  0  0  0  0
   -4.0151   -2.1081   -1.2981 H   0  0  0  0  0  0  0  0  0  0  0  0
   -5.2046   -1.5090   -0.1648 H   0  0  0  0  0  0  0  0  0  0  0  0
    0.0264    2.3477   -0.0834 H   0  0  0  0  0  0  0  0  0  0  0  0
   -0.4285    3.2512    1.3200 H   0  0  0  0  0  0  0  0  0  0  0  0
   -5.1239    0.8010    0.6632 H   0  0  0  0  0  0  0  0  0  0  0  0
   -2.1913   -0.6887   -2.1204 H   0  0  0  0  0  0  0  0  0  0  0  0
   -4.4137    3.1156    0.1623 H   0  0  0  0  0  0  0  0  0  0  0  0
   -1.4848    1.6267   -2.6072 H   0  0  0  0  0  0  0  0  0  0  0  0
   -2.5941    3.5332   -1.4716 H   0  0  0  0  0  0  0  0  0  0  0  0
  1 13  1  0  0  0  0
  1 15  1  0  0  0  0
  2 16  2  0  0  0  0
  3 17  2  0  0  0  0
  4 15  1  0  0  0  0
  4 17  1  0  0  0  0
  4 38  1  0  0  0  0
  5 16  1  0  0  0  0
  5 43  1  0  0  0  0
  5 44  1  0  0  0  0
  6  7  1  0  0  0  0
  6  8  1  0  0  0  0
  6 26  1  0  0  0  0
  6 27  1  0  0  0  0
  7  9  1  0  0  0  0
  7 28  1  0  0  0  0
  7 29  1  0  0  0  0
  8 10  1  0  0  0  0
  8 30  1  0  0  0  0
  8 31  1  0  0  0  0
  9 11  1  0  0  0  0
  9 32  1  0  0  0  0
  9 33  1  0  0  0  0
 10 12  1  0  0  0  0
 10 34  1  0  0  0  0
 10 35  1  0  0  0  0
 11 13  2  0  0  0  0
 11 14  1  0  0  0  0
 12 13  1  0  0  0  0
 12 36  1  0  0  0  0
 12 37  1  0  0  0  0
 14 15  2  0  0  0  0
 14 16  1  0  0  0  0
 17 18  1  0  0  0  0
 18 19  1  0  0  0  0
 18 39  1  0  0  0  0
 18 40  1  0  0  0  0
 19 20  1  0  0  0  0
 19 41  1  0  0  0  0
 19 42  1  0  0  0  0
 20 21  2  0  0  0  0
 20 22  1  0  0  0  0
 21 23  1  0  0  0  0
 21 45  1  0  0  0  0
 22 24  2  0  0  0  0
 22 46  1  0  0  0  0
 23 25  2  0  0  0  0
 23 47  1  0  0  0  0
 24 25  1  0  0  0  0
 24 48  1  0  0  0  0
 25 49  1  0  0  0  0
M  END
> <PUBCHEM_COMPOUND_CID>
3578419

> <PUBCHEM_CONFORMER_RMSD>
0.8

> <PUBCHEM_CONFORMER_DIVERSEORDER>
1
22
95
134
159
47
121
97
46
76
57
173
101
93
80
142
166
4
156
167
28
26
158
172
174
195
8
33
29
144
70
149
165
68
125
60
82
55
72
181
99
180
146
35
170
198
108
138
24
86
120
87
77
40
199
141
154
201
176
81
15
113
105
7
202
191
59
43
10
9
104
147
196
128
169
153
182
187
184
39
88
200
5
63
3
96
25
37
54
133
197
118
6
79
85
34
148
186
103
115
91
31
145
171
67
163
175
16
38
51
140
129
123
21
157
45
155
117
71
151
12
74
179
102
150
139
18
130
2
92
135
152
106
124
183
192
30
41
98
127
17
84
58
119
194
164
14
189
109
89
66
20
160
112
107
61
161
36
116
168
50
32
136
185
126
131
90
114
19
100
23
162
137
65
122
94
48
143
62
69
52
132
78
56
177
42
73
178
111
27
13
53
44
49
83
75
188
190
11
110
193
64

> <PUBCHEM_MMFF94_PARTIAL_CHARGES>
29
1 -0.08
11 -0.18
12 0.18
13 -0.14
14 -0.09
15 0.1
16 0.72
17 0.57
18 0.06
19 0.14
2 -0.57
20 -0.14
21 -0.15
22 -0.15
23 -0.15
24 -0.15
25 -0.15
3 -0.57
38 0.37
4 -0.49
43 0.37
44 0.37
45 0.15
46 0.15
47 0.15
48 0.15
49 0.15
5 -0.8
9 0.18

> <PUBCHEM_EFFECTIVE_ROTOR_COUNT>
7.2

> <PUBCHEM_PHARMACOPHORE_FEATURES>
6
1 2 acceptor
1 3 acceptor
1 4 donor
1 5 donor
5 1 11 13 14 15 rings
6 20 21 22 23 24 25 rings

> <PUBCHEM_HEAVY_ATOM_COUNT>
25

> <PUBCHEM_ATOM_DEF_STEREO_COUNT>
0

> <PUBCHEM_ATOM_UDEF_STEREO_COUNT>
0

> <PUBCHEM_BOND_DEF_STEREO_COUNT>
0

> <PUBCHEM_BOND_UDEF_STEREO_COUNT>
0

> <PUBCHEM_ISOTOPIC_ATOM_COUNT>
0

> <PUBCHEM_COMPONENT_COUNT>
1

> <PUBCHEM_CACTVS_TAUTO_COUNT>
7

> <PUBCHEM_CONFORMER_ID>
00369A3300000001

> <PUBCHEM_MMFF94_ENERGY>
61.7659

> <PUBCHEM_FEATURE_SELFOVERLAP>
30.446

> <PUBCHEM_SHAPE_FINGERPRINT>
10165383 225 18119251662776799565
10498660 4 17895459389430650287
10670039 82 18113622313223421046
10759866 29 18040714719261547842
10764073 3 17115449188982371922
11595378 159 16298382457216830678
12035759 4 18339370639166669672
12670546 177 18409173198943045494
12788726 201 17629201502823470384
13224815 77 16298384639023384629
13642711 20 17126776710128602600
14251757 17 18412546526518650136
14713325 29 17897174721753338474
14840074 17 17313110718233220765
14910302 57 18201153381375168367
15163728 17 17532672302657965788
15575132 122 17603863361284834069
17357779 13 17632581505073911738
1813 80 15913332394385209840
18186145 218 18338224956134072413
221357 26 18271804653197151591
22182313 1 18200870781469947522
22907989 373 18198085645576485372
23536364 44 18200611206626366150
23557571 272 18042689592210289299
23559900 14 18269267976967127050
238 59 17840547622523619887
474 4 15864074316568728454
5281201 14 18411984667487104110
5283173 99 18410853244489500736
6287921 2 18187368666748010125

> <PUBCHEM_SHAPE_MULTIPOLES>
496.64
9.49
3.15
1.89
1.71
0.49
-0.48
-1.36
4.58
-1.78
0.06
0.82
-0.96
1.04

> <PUBCHEM_SHAPE_SELFOVERLAP>
1039.705

> <PUBCHEM_SHAPE_VOLUME>
279.7

> <PUBCHEM_COORDINATE_TYPE>
2
5
10

$$$$
