707776
  -OEChem-02101610503D

 22 23  0     0  0  0  0  0  0999 V2000
   -4.0151   -0.5151   -2.0094 Cl  0  0  0  0  0  0  0  0  0  0  0  0
    0.7259    2.4101   -0.1899 O   0  0  0  0  0  0  0  0  0  0  0  0
    3.5397   -2.1034    0.0278 O   0  0  0  0  0  0  0  0  0  0  0  0
    0.6866    0.0457    0.1050 C   0  0  0  0  0  0  0  0  0  0  0  0
   -0.7744   -0.0323    0.2862 C   0  0  0  0  0  0  0  0  0  0  0  0
    1.3521    1.3553   -0.1527 C   0  0  0  0  0  0  0  0  0  0  0  0
    1.4189   -1.0765    0.1567 C   0  0  0  0  0  0  0  0  0  0  0  0
   -1.6058   -0.2145   -0.8188 C   0  0  0  0  0  0  0  0  0  0  0  0
   -1.3253    0.0770    1.5631 C   0  0  0  0  0  0  0  0  0  0  0  0
    2.8851   -1.0684   -0.0320 C   0  0  0  0  0  0  0  0  0  0  0  0
    2.8164    1.3544   -0.3553 C   0  0  0  0  0  0  0  0  0  0  0  0
   -2.9881   -0.2876   -0.6471 C   0  0  0  0  0  0  0  0  0  0  0  0
   -2.7075    0.0039    1.7349 C   0  0  0  0  0  0  0  0  0  0  0  0
    3.5304    0.2299   -0.2982 C   0  0  0  0  0  0  0  0  0  0  0  0
   -3.5390   -0.1785    0.6297 C   0  0  0  0  0  0  0  0  0  0  0  0
    0.9642   -2.0462    0.3383 H   0  0  0  0  0  0  0  0  0  0  0  0
   -1.1770   -0.2991   -1.8156 H   0  0  0  0  0  0  0  0  0  0  0  0
   -0.6903    0.2204    2.4341 H   0  0  0  0  0  0  0  0  0  0  0  0
    3.2963    2.3072   -0.5496 H   0  0  0  0  0  0  0  0  0  0  0  0
   -3.1365    0.0892    2.7290 H   0  0  0  0  0  0  0  0  0  0  0  0
    4.6044    0.2414   -0.4452 H   0  0  0  0  0  0  0  0  0  0  0  0
   -4.6143   -0.2338    0.7789 H   0  0  0  0  0  0  0  0  0  0  0  0
  1 12  1  0  0  0  0
  2  6  2  0  0  0  0
  3 10  2  0  0  0  0
  4  5  1  0  0  0  0
  4  6  1  0  0  0  0
  4  7  2  0  0  0  0
  5  8  2  0  0  0  0
  5  9  1  0  0  0  0
  6 11  1  0  0  0  0
  7 10  1  0  0  0  0
  7 16  1  0  0  0  0
  8 12  1  0  0  0  0
  8 17  1  0  0  0  0
  9 13  2  0  0  0  0
  9 18  1  0  0  0  0
 10 14  1  0  0  0  0
 11 14  2  0  0  0  0
 11 19  1  0  0  0  0
 12 15  2  0  0  0  0
 13 15  1  0  0  0  0
 13 20  1  0  0  0  0
 14 21  1  0  0  0  0
 15 22  1  0  0  0  0
M  END
> <PUBCHEM_COMPOUND_CID>
707776

> <PUBCHEM_CONFORMER_RMSD>
0.4

> <PUBCHEM_CONFORMER_DIVERSEORDER>
1
6
3
4
5
2

> <PUBCHEM_MMFF94_PARTIAL_CHARGES>
22
1 -0.18
10 0.54
11 -0.14
12 0.18
13 -0.15
14 -0.14
15 -0.15
16 0.15
17 0.15
18 0.15
19 0.15
2 -0.57
20 0.15
21 0.15
22 0.15
3 -0.57
4 -0.01
5 0.03
6 0.54
7 -0.14
8 -0.15
9 -0.15

> <PUBCHEM_EFFECTIVE_ROTOR_COUNT>
1

> <PUBCHEM_PHARMACOPHORE_FEATURES>
4
1 2 acceptor
1 3 acceptor
6 4 6 7 10 11 14 rings
6 5 8 9 12 13 15 rings

> <PUBCHEM_HEAVY_ATOM_COUNT>
15

> <PUBCHEM_ATOM_DEF_STEREO_COUNT>
0

> <PUBCHEM_ATOM_UDEF_STEREO_COUNT>
0

> <PUBCHEM_BOND_DEF_STEREO_COUNT>
0

> <PUBCHEM_BOND_UDEF_STEREO_COUNT>
0

> <PUBCHEM_ISOTOPIC_ATOM_COUNT>
0

> <PUBCHEM_COMPONENT_COUNT>
1

> <PUBCHEM_CACTVS_TAUTO_COUNT>
1

> <PUBCHEM_CONFORMER_ID>
000ACCC000000001

> <PUBCHEM_MMFF94_ENERGY>
39.805

> <PUBCHEM_FEATURE_SELFOVERLAP>
20.297

> <PUBCHEM_SHAPE_FINGERPRINT>
10062212 137 17846500318510445283
10498660 4 15574980759501840575
10608611 8 17023183880921881125
11471102 20 18334858337793223620
11543360 7 18264473144133565383
11578080 2 17629732678762524993
12236239 1 17918280856575876619
124424 183 17531235175918813088
12500047 106 16081360873627613811
12553582 1 18265341599306030434
12932764 1 17917999377283366296
13134695 92 18408318887119783796
13296908 3 17894356574487882594
13538477 17 17418098728124195131
13581323 91 16272208591502210967
14115302 16 17702934955010120151
14144814 61 18272376381551795658
14576447 43 18200866395912946294
14993402 34 18272653467309319886
15219456 202 17748830747321556369
16945 1 18336835289733223760
1813 80 18055938514737232102
18186145 218 17385442090059477709
19049666 15 17531241717022071129
19422 9 17846501426074087047
200 152 18343015592995101959
20201158 50 18040156218878057026
20279233 1 17531246179450906682
20361792 2 18340209596228939406
20645477 70 18333729100459830894
20715346 28 17531253901828374611
21639500 275 18337674251164365764
22112679 90 17560814237676638673
22802520 49 17676486107750354348
232386 152 16773793723125175879
23493267 7 13984664711650174409
23526113 38 17895462670332204136
23557571 272 16298676074066093492
23559900 14 16660639623279098866
23598291 2 18131357388155044638
474 4 17842548819717978240
6049 1 17313116275488143797
7615 1 17918277558204783697
77492 1 17918000481163541313
81228 2 17900260802059176696
88987 49 16200166365042021121

> <PUBCHEM_SHAPE_MULTIPOLES>
298.82
7.05
1.56
1.41
0.96
0.23
-0.06
-1.88
1.6
-1.75
0.18
1.98
-0.05
-0.89

> <PUBCHEM_SHAPE_SELFOVERLAP>
639.764

> <PUBCHEM_SHAPE_VOLUME>
165.6

> <PUBCHEM_COORDINATE_TYPE>
2
5
10

$$$$
