2230871
  -OEChem-02101610513D

 38 40  0     0  0  0  0  0  0999 V2000
    7.5314   -0.7620    1.7684 I   0  0  0  0  0  0  0  0  0  0  0  0
   -1.1498    3.4063    0.4897 S   0  0  0  0  0  0  0  0  0  0  0  0
   -6.1540   -0.3859   -0.1650 O   0  0  0  0  0  0  0  0  0  0  0  0
    4.6422   -0.9814    0.8276 O   0  0  0  0  0  0  0  0  0  0  0  0
   -0.2258   -1.5791   -0.3883 O   0  0  0  0  0  0  0  0  0  0  0  0
    3.3349    1.5394   -0.1491 O   0  0  0  0  0  0  0  0  0  0  0  0
   -0.6870    0.7001   -0.0393 N   0  0  0  0  0  0  0  0  0  0  0  0
    1.1481    2.2152    0.0628 N   0  0  0  0  0  0  0  0  0  0  0  0
   -2.1016    0.4167   -0.0722 C   0  0  0  0  0  0  0  0  0  0  0  0
    1.6135   -0.1102   -0.1980 C   0  0  0  0  0  0  0  0  0  0  0  0
    0.1587   -0.4234   -0.2058 C   0  0  0  0  0  0  0  0  0  0  0  0
   -0.2309    2.0335    0.1361 C   0  0  0  0  0  0  0  0  0  0  0  0
   -2.7605    0.1113    1.1081 C   0  0  0  0  0  0  0  0  0  0  0  0
   -2.7744    0.4579   -1.2829 C   0  0  0  0  0  0  0  0  0  0  0  0
    2.1395    1.2660   -0.1009 C   0  0  0  0  0  0  0  0  0  0  0  0
   -4.8191   -0.1226   -0.1344 C   0  0  0  0  0  0  0  0  0  0  0  0
    2.4937   -1.1177   -0.2936 C   0  0  0  0  0  0  0  0  0  0  0  0
   -4.1283   -0.1601    1.0768 C   0  0  0  0  0  0  0  0  0  0  0  0
   -4.1423    0.1865   -1.3142 C   0  0  0  0  0  0  0  0  0  0  0  0
    3.9576   -0.9783   -0.3124 C   0  0  0  0  0  0  0  0  0  0  0  0
    4.7105   -0.8410   -1.4147 C   0  0  0  0  0  0  0  0  0  0  0  0
   -6.6613   -1.2852    0.8198 C   0  0  0  0  0  0  0  0  0  0  0  0
    6.0336   -0.7447   -0.9214 C   0  0  0  0  0  0  0  0  0  0  0  0
    5.9386   -0.8356    0.4478 C   0  0  0  0  0  0  0  0  0  0  0  0
   -7.8672   -2.0056    0.2552 C   0  0  0  0  0  0  0  0  0  0  0  0
   -2.2301    0.0850    2.0560 H   0  0  0  0  0  0  0  0  0  0  0  0
   -2.2542    0.6976   -2.2061 H   0  0  0  0  0  0  0  0  0  0  0  0
    1.4708    3.1734    0.1678 H   0  0  0  0  0  0  0  0  0  0  0  0
    2.1501   -2.1466   -0.3674 H   0  0  0  0  0  0  0  0  0  0  0  0
   -4.6222   -0.3688    2.0211 H   0  0  0  0  0  0  0  0  0  0  0  0
   -4.6753    0.2174   -2.2606 H   0  0  0  0  0  0  0  0  0  0  0  0
    4.3910   -0.8090   -2.4466 H   0  0  0  0  0  0  0  0  0  0  0  0
   -5.9222   -2.0480    1.0955 H   0  0  0  0  0  0  0  0  0  0  0  0
   -6.9523   -0.7171    1.7103 H   0  0  0  0  0  0  0  0  0  0  0  0
    6.9368   -0.6236   -1.5034 H   0  0  0  0  0  0  0  0  0  0  0  0
   -8.2893   -2.6976    0.9894 H   0  0  0  0  0  0  0  0  0  0  0  0
   -8.6409   -1.2891   -0.0399 H   0  0  0  0  0  0  0  0  0  0  0  0
   -7.5947   -2.5675   -0.6443 H   0  0  0  0  0  0  0  0  0  0  0  0
  1 24  1  0  0  0  0
  2 12  2  0  0  0  0
  3 16  1  0  0  0  0
  3 22  1  0  0  0  0
  4 20  1  0  0  0  0
  4 24  1  0  0  0  0
  5 11  2  0  0  0  0
  6 15  2  0  0  0  0
  7  9  1  0  0  0  0
  7 11  1  0  0  0  0
  7 12  1  0  0  0  0
  8 12  1  0  0  0  0
  8 15  1  0  0  0  0
  8 28  1  0  0  0  0
  9 13  2  0  0  0  0
  9 14  1  0  0  0  0
 10 11  1  0  0  0  0
 10 15  1  0  0  0  0
 10 17  2  0  0  0  0
 13 18  1  0  0  0  0
 13 26  1  0  0  0  0
 14 19  2  0  0  0  0
 14 27  1  0  0  0  0
 16 18  2  0  0  0  0
 16 19  1  0  0  0  0
 17 20  1  0  0  0  0
 17 29  1  0  0  0  0
 18 30  1  0  0  0  0
 19 31  1  0  0  0  0
 20 21  2  0  0  0  0
 21 23  1  0  0  0  0
 21 32  1  0  0  0  0
 22 25  1  0  0  0  0
 22 33  1  0  0  0  0
 22 34  1  0  0  0  0
 23 24  2  0  0  0  0
 23 35  1  0  0  0  0
 25 36  1  0  0  0  0
 25 37  1  0  0  0  0
 25 38  1  0  0  0  0
M  END
> <PUBCHEM_COMPOUND_CID>
2230871

> <PUBCHEM_CONFORMER_RMSD>
0.8

> <PUBCHEM_CONFORMER_DIVERSEORDER>
1
4
5
2
3

> <PUBCHEM_MMFF94_PARTIAL_CHARGES>
32
1 -0.03
10 0.03
11 0.62
12 0.5
13 -0.15
14 -0.15
15 0.62
16 0.08
17 -0.11
18 -0.15
19 -0.15
2 -0.38
20 0.09
21 -0.15
22 0.28
23 -0.15
24 0.17
26 0.15
27 0.15
28 0.37
29 0.15
3 -0.36
30 0.15
31 0.15
32 0.15
35 0.15
4 -0.28
5 -0.57
6 -0.57
7 -0.24
8 -0.49
9 0.12

> <PUBCHEM_EFFECTIVE_ROTOR_COUNT>
4.4

> <PUBCHEM_PHARMACOPHORE_FEATURES>
11
1 1 hydrophobe
1 10 anion
1 2 acceptor
1 3 acceptor
1 4 acceptor
1 5 acceptor
1 6 acceptor
1 8 donor
5 4 20 21 23 24 rings
6 7 8 10 11 12 15 rings
6 9 13 14 16 18 19 rings

> <PUBCHEM_HEAVY_ATOM_COUNT>
25

> <PUBCHEM_ATOM_DEF_STEREO_COUNT>
0

> <PUBCHEM_ATOM_UDEF_STEREO_COUNT>
0

> <PUBCHEM_BOND_DEF_STEREO_COUNT>
1

> <PUBCHEM_BOND_UDEF_STEREO_COUNT>
0

> <PUBCHEM_ISOTOPIC_ATOM_COUNT>
0

> <PUBCHEM_COMPONENT_COUNT>
1

> <PUBCHEM_CACTVS_TAUTO_COUNT>
3

> <PUBCHEM_CONFORMER_ID>
00220A5700000001

> <PUBCHEM_MMFF94_ENERGY>
98.3931

> <PUBCHEM_FEATURE_SELFOVERLAP>
55.823

> <PUBCHEM_SHAPE_FINGERPRINT>
10 15 18412255156717933802
106641 1 18202559605766311386
11646440 116 18201720656592330178
12166972 35 18040158439387121229
12236239 1 17632582669315945513
12516196 113 18342177760560194528
12616971 3 17846777442759236013
12741549 16 18113611279516618205
13073987 5 18270394967932345074
13140716 1 18340484590548594666
13668630 136 18411705374137781343
13673619 4 18259706727199727197
13685833 64 18410858771832887579
13782708 43 18040717013190737259
13862211 1 18409731742275961994
14251757 52 12247671695735818026
14849402 71 16773222020318667288
14933364 13 14836401437241330498
15183329 4 14345790522690381586
15706992 2 14692290707299408226
17492 89 18123190095942311982
1813 80 18130522850276960804
200 152 18410009905685103565
20028762 73 18202286930972589551
2026 5 17531519880833056162
21049683 271 18262807375058980172
21130935 74 18200314308359558426
21150785 3 17458069291313667150
21267235 1 18342464733163674526
21521239 73 14923940137665228600
21792934 111 18272080596203575673
22224240 67 17203885262545987422
23198884 109 15213021531294991773
23402539 116 18342737373350563204
23522609 53 17971224502049636789
23536379 177 15936411109382497190
23559900 14 16298959765456951317
23569914 2 15046906056530488042
23569917 315 18114181874950014242
23569943 247 17697900080714111422
2747138 104 18272094894149268706
283562 15 18267307538469218937
3004659 81 18113901575991371188
3383291 50 18410855477514766723
34797466 226 16153717543339110359
439807 62 17676206879469021859
465052 167 18342183279630262407
59682541 35 18272643572443161586
59682541 52 13551464840083762242
7495541 125 17894355492662357364
8863177 126 18189062065469640395
9663363 56 18412537700039122924

> <PUBCHEM_SHAPE_MULTIPOLES>
496.83
19.21
2.24
1.26
1.27
2.03
-0.12
-14.12
-5.31
1.42
-0.37
-1.1
-0.23
0.31

> <PUBCHEM_SHAPE_SELFOVERLAP>
1045.948

> <PUBCHEM_SHAPE_VOLUME>
286.6

> <PUBCHEM_COORDINATE_TYPE>
2
5
10

$$$$
