2888320
  -OEChem-02101610513D

 28 29  0     0  0  0  0  0  0999 V2000
    5.4756   -0.9822   -1.0120 Cl  0  0  0  0  0  0  0  0  0  0  0  0
   -0.4872   -0.5499    0.8568 S   0  0  0  0  0  0  0  0  0  0  0  0
   -0.8521   -1.8987    1.2513 O   0  0  0  0  0  0  0  0  0  0  0  0
   -0.5631    0.5398    1.8137 O   0  0  0  0  0  0  0  0  0  0  0  0
    3.6348    2.6069    0.5194 O   0  5  0  0  0  0  0  0  0  0  0  0
    5.3379    1.4825   -0.2897 O   0  0  0  0  0  0  0  0  0  0  0  0
   -6.6145    0.5337   -0.1720 O   0  0  0  0  0  0  0  0  0  0  0  0
   -1.2690   -0.1196   -0.5072 N   0  0  0  0  0  0  0  0  0  0  0  0
    4.1422    1.5490    0.0791 N   0  3  0  0  0  0  0  0  0  0  0  0
    1.2014   -0.6576    0.3330 C   0  0  0  0  0  0  0  0  0  0  0  0
    2.0022    0.4668    0.4091 C   0  0  0  0  0  0  0  0  0  0  0  0
    1.6818   -1.8637   -0.1415 C   0  0  0  0  0  0  0  0  0  0  0  0
    3.3316    0.3818   -0.0045 C   0  0  0  0  0  0  0  0  0  0  0  0
    3.0111   -1.9488   -0.5549 C   0  0  0  0  0  0  0  0  0  0  0  0
    3.8362   -0.8261   -0.4866 C   0  0  0  0  0  0  0  0  0  0  0  0
   -2.5524    0.0418   -0.4455 C   0  0  0  0  0  0  0  0  0  0  0  0
   -3.2717   -0.1631    0.8340 C   0  0  0  0  0  0  0  0  0  0  0  0
   -3.3644    0.4314   -1.6199 C   0  0  0  0  0  0  0  0  0  0  0  0
   -4.5939   -0.0025    0.9213 C   0  0  0  0  0  0  0  0  0  0  0  0
   -4.6864    0.5916   -1.5303 C   0  0  0  0  0  0  0  0  0  0  0  0
   -5.4000    0.3870   -0.2535 C   0  0  0  0  0  0  0  0  0  0  0  0
    1.5851    1.3991    0.7785 H   0  0  0  0  0  0  0  0  0  0  0  0
    1.0542   -2.7466   -0.2121 H   0  0  0  0  0  0  0  0  0  0  0  0
    3.3879   -2.8971   -0.9301 H   0  0  0  0  0  0  0  0  0  0  0  0
   -2.7955   -0.4539    1.7585 H   0  0  0  0  0  0  0  0  0  0  0  0
   -2.8487    0.5838   -2.5616 H   0  0  0  0  0  0  0  0  0  0  0  0
   -5.1162   -0.1557    1.8593 H   0  0  0  0  0  0  0  0  0  0  0  0
   -5.2736    0.8772   -2.3959 H   0  0  0  0  0  0  0  0  0  0  0  0
  1 15  1  0  0  0  0
  2  3  2  0  0  0  0
  2  4  2  0  0  0  0
  2  8  1  0  0  0  0
  2 10  1  0  0  0  0
  5  9  1  0  0  0  0
  6  9  2  0  0  0  0
  7 21  2  0  0  0  0
  8 16  2  0  0  0  0
  9 13  1  0  0  0  0
 10 11  2  0  0  0  0
 10 12  1  0  0  0  0
 11 13  1  0  0  0  0
 11 22  1  0  0  0  0
 12 14  2  0  0  0  0
 12 23  1  0  0  0  0
 13 15  2  0  0  0  0
 14 15  1  0  0  0  0
 14 24  1  0  0  0  0
 16 17  1  0  0  0  0
 16 18  1  0  0  0  0
 17 19  2  0  0  0  0
 17 25  1  0  0  0  0
 18 20  2  0  0  0  0
 18 26  1  0  0  0  0
 19 21  1  0  0  0  0
 19 27  1  0  0  0  0
 20 21  1  0  0  0  0
 20 28  1  0  0  0  0
M  CHG  2   5  -1   9   1
M  END
> <PUBCHEM_COMPOUND_CID>
2888320

> <PUBCHEM_CONFORMER_RMSD>
0.6

> <PUBCHEM_CONFORMER_DIVERSEORDER>
1
2

> <PUBCHEM_MMFF94_PARTIAL_CHARGES>
28
1 -0.18
10 -0.01
11 -0.15
12 -0.15
13 0.13
14 -0.15
15 0.18
16 0.42
17 -0.14
18 -0.14
19 -0.14
2 1.5
20 -0.14
21 0.54
22 0.15
23 0.15
24 0.15
25 0.15
26 0.15
27 0.15
28 0.15
3 -0.65
4 -0.65
5 -0.52
6 -0.52
7 -0.57
8 -0.64
9 0.91

> <PUBCHEM_EFFECTIVE_ROTOR_COUNT>
3

> <PUBCHEM_PHARMACOPHORE_FEATURES>
10
1 3 acceptor
1 4 acceptor
1 5 acceptor
1 5 anion
1 6 acceptor
1 7 acceptor
1 8 acceptor
1 8 donor
6 10 11 12 13 14 15 rings
6 16 17 18 19 20 21 rings

> <PUBCHEM_HEAVY_ATOM_COUNT>
21

> <PUBCHEM_ATOM_DEF_STEREO_COUNT>
0

> <PUBCHEM_ATOM_UDEF_STEREO_COUNT>
0

> <PUBCHEM_BOND_DEF_STEREO_COUNT>
0

> <PUBCHEM_BOND_UDEF_STEREO_COUNT>
0

> <PUBCHEM_ISOTOPIC_ATOM_COUNT>
0

> <PUBCHEM_COMPONENT_COUNT>
1

> <PUBCHEM_CACTVS_TAUTO_COUNT>
1

> <PUBCHEM_CONFORMER_ID>
002C128000000001

> <PUBCHEM_MMFF94_ENERGY>
61.1901

> <PUBCHEM_FEATURE_SELFOVERLAP>
50.882

> <PUBCHEM_SHAPE_FINGERPRINT>
10498660 4 17459460066417770325
10670039 82 16661208027566504918
10693767 8 17773887394198015758
11128504 68 17847059990865639165
11287383 113 18408040723636509707
11595378 159 15285347414702022868
11796584 16 13398625052557704813
12236239 1 17346883325222052490
12403259 415 18040721363348769762
12516196 113 11023821777904214163
12616971 3 17632303358264215419
12633257 1 11602821289354870144
12730499 353 18334018276228487866
12788726 201 16630256822426012043
12916748 109 17894629232139464045
12969540 114 18114172043378534463
13402501 40 18113052744425235700
13540713 4 18196104454947161442
13685833 64 11095882683514791429
13760787 5 17989772185161973555
13836976 161 17775004570603740846
14528608 73 18272087214473235381
15238133 3 15646771189478516316
15664445 248 15195566831775788112
17834072 33 18131629002414357743
17844677 252 18340491075891299901
18186145 218 18409164402728807803
18222031 100 14261348068052374001
193927 3 13758069744758245767
200 152 17775288231470754930
20374829 77 14405180668881544519
20612939 158 18272655640678789880
20645477 56 18040998474665159483
20645477 70 18272377451516052398
21033648 29 17894909637437319876
21267235 1 15841547484190576095
212916 134 16587739849871903946
221357 26 18340768152404846036
23227448 37 18115309024015969327
23402655 69 18272087201493569702
23557571 272 17458636596464127007
23559900 14 18412546531167194994
2916195 48 17967527991227346317
29717793 49 17346604040963408700
3004659 81 17418374653940148462
314173 85 12751239220410118243
341906 21 16443059482791601261
3545911 37 18113903749313485751
474 4 18340207491906201368
495365 180 18341606040927315186
5281201 14 18339643326170885564
542803 24 17918274242869579237
633830 44 18340205181403570235
7164475 11 17559965316153105184
7471813 234 17489588931476515616
960060 61 17489864946927150893

> <PUBCHEM_SHAPE_MULTIPOLES>
398.58
13.66
1.72
1.29
6.65
0.3
0.04
3.47
3.86
-2.96
-0.17
1.08
-0.01
1.05

> <PUBCHEM_SHAPE_SELFOVERLAP>
840.097

> <PUBCHEM_SHAPE_VOLUME>
224.4

> <PUBCHEM_COORDINATE_TYPE>
2
5
10

$$$$
