235538
  -OEChem-02101610523D

 45 48  0     0  0  0  0  0  0999 V2000
    5.1163   -1.9880    0.9922 S   0  0  0  0  0  0  0  0  0  0  0  0
   -4.8144    1.9971    1.2178 S   0  0  0  0  0  0  0  0  0  0  0  0
    5.8433   -1.3012    2.2819 O   0  0  0  0  0  0  0  0  0  0  0  0
   -5.2662    1.2383    2.5902 O   0  0  0  0  0  0  0  0  0  0  0  0
    4.2930   -3.0758    1.4896 O   0  0  0  0  0  0  0  0  0  0  0  0
    6.1190   -2.2138   -0.0325 O   0  0  0  0  0  0  0  0  0  0  0  0
   -3.8695    3.0352    1.5899 O   0  0  0  0  0  0  0  0  0  0  0  0
   -6.0073    2.3077    0.4517 O   0  0  0  0  0  0  0  0  0  0  0  0
   -0.0372   -0.9363    1.2587 O   0  5  0  0  0  0  0  0  0  0  0  0
    0.3550   -0.2651    0.2428 N   0  3  0  0  0  0  0  0  0  0  0  0
   -0.4081    0.2436   -0.6517 N   0  0  0  0  0  0  0  0  0  0  0  0
    4.5011    0.4169   -0.2627 C   0  0  0  0  0  0  0  0  0  0  0  0
    4.0372   -0.7477    0.3706 C   0  0  0  0  0  0  0  0  0  0  0  0
    3.5651    1.3680   -0.7343 C   0  0  0  0  0  0  0  0  0  0  0  0
   -4.5597   -0.3300   -0.2844 C   0  0  0  0  0  0  0  0  0  0  0  0
   -3.9342    0.7828    0.3013 C   0  0  0  0  0  0  0  0  0  0  0  0
   -3.7777   -1.2643   -1.0043 C   0  0  0  0  0  0  0  0  0  0  0  0
    1.7817   -0.0313    0.0684 C   0  0  0  0  0  0  0  0  0  0  0  0
    2.6701   -0.9716    0.5363 C   0  0  0  0  0  0  0  0  0  0  0  0
    2.1928    1.1262   -0.5587 C   0  0  0  0  0  0  0  0  0  0  0  0
   -1.7882    0.0531   -0.5295 C   0  0  0  0  0  0  0  0  0  0  0  0
   -2.5573    0.9717    0.1787 C   0  0  0  0  0  0  0  0  0  0  0  0
   -2.3931   -1.0583   -1.1174 C   0  0  0  0  0  0  0  0  0  0  0  0
    5.8733    0.6586   -0.4379 C   0  0  0  0  0  0  0  0  0  0  0  0
    4.0291    2.5327   -1.3671 C   0  0  0  0  0  0  0  0  0  0  0  0
   -5.9443   -0.5359   -0.1711 C   0  0  0  0  0  0  0  0  0  0  0  0
   -4.4033   -2.3772   -1.5897 C   0  0  0  0  0  0  0  0  0  0  0  0
    6.3166    1.8210   -1.0693 C   0  0  0  0  0  0  0  0  0  0  0  0
    5.3962    2.7563   -1.5330 C   0  0  0  0  0  0  0  0  0  0  0  0
   -6.5493   -1.6470   -0.7593 C   0  0  0  0  0  0  0  0  0  0  0  0
   -5.7802   -2.5658   -1.4672 C   0  0  0  0  0  0  0  0  0  0  0  0
    2.2991   -1.8700    1.0182 H   0  0  0  0  0  0  0  0  0  0  0  0
    1.4763    1.8653   -0.9100 H   0  0  0  0  0  0  0  0  0  0  0  0
   -2.0533    1.8238    0.6264 H   0  0  0  0  0  0  0  0  0  0  0  0
   -1.7802   -1.7696   -1.6689 H   0  0  0  0  0  0  0  0  0  0  0  0
    6.6534    0.0077   -0.0635 H   0  0  0  0  0  0  0  0  0  0  0  0
    3.3280    3.2781   -1.7369 H   0  0  0  0  0  0  0  0  0  0  0  0
   -6.6046    0.1027    0.4022 H   0  0  0  0  0  0  0  0  0  0  0  0
   -3.8219   -3.1087   -2.1470 H   0  0  0  0  0  0  0  0  0  0  0  0
    7.3809    2.0022   -1.1893 H   0  0  0  0  0  0  0  0  0  0  0  0
    5.7419    3.6624   -2.0220 H   0  0  0  0  0  0  0  0  0  0  0  0
   -7.6194   -1.8015   -0.6555 H   0  0  0  0  0  0  0  0  0  0  0  0
   -6.2514   -3.4321   -1.9224 H   0  0  0  0  0  0  0  0  0  0  0  0
    5.2406   -1.0328    3.0147 H   0  0  0  0  0  0  0  0  0  0  0  0
   -4.5280    0.9115    3.1563 H   0  0  0  0  0  0  0  0  0  0  0  0
  1  3  1  0  0  0  0
  1  5  2  0  0  0  0
  1  6  2  0  0  0  0
  1 13  1  0  0  0  0
  2  4  1  0  0  0  0
  2  7  2  0  0  0  0
  2  8  2  0  0  0  0
  2 16  1  0  0  0  0
  3 44  1  0  0  0  0
  4 45  1  0  0  0  0
  9 10  1  0  0  0  0
 10 11  2  0  0  0  0
 10 18  1  0  0  0  0
 11 21  1  0  0  0  0
 12 13  1  0  0  0  0
 12 14  1  0  0  0  0
 12 24  2  0  0  0  0
 13 19  2  0  0  0  0
 14 20  1  0  0  0  0
 14 25  2  0  0  0  0
 15 16  1  0  0  0  0
 15 17  1  0  0  0  0
 15 26  2  0  0  0  0
 16 22  2  0  0  0  0
 17 23  1  0  0  0  0
 17 27  2  0  0  0  0
 18 19  1  0  0  0  0
 18 20  2  0  0  0  0
 19 32  1  0  0  0  0
 20 33  1  0  0  0  0
 21 22  1  0  0  0  0
 21 23  2  0  0  0  0
 22 34  1  0  0  0  0
 23 35  1  0  0  0  0
 24 28  1  0  0  0  0
 24 36  1  0  0  0  0
 25 29  1  0  0  0  0
 25 37  1  0  0  0  0
 26 30  1  0  0  0  0
 26 38  1  0  0  0  0
 27 31  1  0  0  0  0
 27 39  1  0  0  0  0
 28 29  2  0  0  0  0
 28 40  1  0  0  0  0
 29 41  1  0  0  0  0
 30 31  2  0  0  0  0
 30 42  1  0  0  0  0
 31 43  1  0  0  0  0
M  CHG  2   9  -1  10   1
M  END
> <PUBCHEM_COMPOUND_CID>
235538

> <PUBCHEM_CONFORMER_RMSD>
0.8

> <PUBCHEM_CONFORMER_DIVERSEORDER>
5
11
6
2
12
1
9
8
7
4
3
10

> <PUBCHEM_MMFF94_PARTIAL_CHARGES>
41
1 1.49
10 0.87
11 -0.39
13 -0.01
16 -0.01
18 -0.03
19 -0.15
2 1.49
20 -0.15
21 0.18
22 -0.15
23 -0.15
24 -0.15
25 -0.15
26 -0.15
27 -0.15
28 -0.15
29 -0.15
3 -0.68
30 -0.15
31 -0.15
32 0.15
33 0.15
34 0.15
35 0.15
36 0.15
37 0.15
38 0.15
39 0.15
4 -0.68
40 0.15
41 0.15
42 0.15
43 0.15
44 0.5
45 0.5
5 -0.65
6 -0.65
7 -0.65
8 -0.65
9 -0.63

> <PUBCHEM_EFFECTIVE_ROTOR_COUNT>
4

> <PUBCHEM_PHARMACOPHORE_FEATURES>
13
1 3 acceptor
1 4 acceptor
1 5 acceptor
1 6 acceptor
1 7 acceptor
1 8 acceptor
1 9 anion
4 1 3 5 6 anion
4 2 4 7 8 anion
6 12 13 14 18 19 20 rings
6 12 14 24 25 28 29 rings
6 15 16 17 21 22 23 rings
6 15 17 26 27 30 31 rings

> <PUBCHEM_HEAVY_ATOM_COUNT>
31

> <PUBCHEM_ATOM_DEF_STEREO_COUNT>
0

> <PUBCHEM_ATOM_UDEF_STEREO_COUNT>
0

> <PUBCHEM_BOND_DEF_STEREO_COUNT>
0

> <PUBCHEM_BOND_UDEF_STEREO_COUNT>
0

> <PUBCHEM_ISOTOPIC_ATOM_COUNT>
0

> <PUBCHEM_COMPONENT_COUNT>
1

> <PUBCHEM_CACTVS_TAUTO_COUNT>
1

> <PUBCHEM_CONFORMER_ID>
0003981200000005

> <PUBCHEM_MMFF94_ENERGY>
90.0987

> <PUBCHEM_FEATURE_SELFOVERLAP>
66.141

> <PUBCHEM_SHAPE_FINGERPRINT>
10299344 5 18412544349081423431
10319926 262 17703502242685376907
10411042 1 17897713281737986058
10595046 47 18339643446440577756
10693767 8 18339085896554057278
10912923 1 18411136943694807040
11059845 2 17626663800291168256
11273773 42 18191881217214456164
12107183 9 18051131397696089473
12236239 1 18409448089903598901
12403259 415 15554450699319497901
12616971 3 18334577910435085744
12788726 201 18201724002456476715
13533116 47 18334851749403068870
13782708 43 16515961463495651226
13785724 45 17905611000155311806
14118638 360 18411699928139933388
14347332 77 18260818268207869230
14856354 85 18059017323552454455
15021287 119 18260831453662632481
15064981 113 17845366653329424637
15081414 286 17458349658690196588
15183329 4 18343023315056130781
15250474 111 18411691110446214526
15419008 47 15698007348367967632
1577012 14 18411141333215102925
15799311 1 18187373133451187542
16112460 7 18260828219832119490
16990350 14 16478284322574766665
17844677 252 18040431053819595044
19377110 9 18411698802774027770
20028762 73 18409720743287515586
21033648 144 17749388204175648534
21033648 29 15791725304514875999
21065198 48 18410856568351160677
21792961 116 16271941397919819212
2303208 19 15698005157934633149
23081809 10 18410575093263569540
23522609 53 18269016274102468369
23569914 152 16451734488039145839
23569943 247 17605261888050954842
24771293 8 18408876340480060152
249057 25 18411696586681854441
25147074 1 18410855460128168288
255183 451 18264205821681282622
3004659 81 18413106161142791838
34797466 226 16702025348154146664
3504750 166 18197764531808724607
3610482 184 18339661000188402165
3633792 109 18040985251225909071
394071 54 17313107496918188276
397830 11 14619938469498367167
4015057 19 18040436624260568921
4073 2 17896043307346143906
4197921 191 18411982485712133535
497634 4 18336541703338901933
504579 68 18342171193961537557
5104073 3 18411979169638613872
6057620 51 18192713573006268197

> <PUBCHEM_SHAPE_MULTIPOLES>
594.62
20.02
3.19
1.68
0.04
0.2
-0.62
-1.08
0.82
-0.54
-0.26
0.33
0.07
-6.76

> <PUBCHEM_SHAPE_SELFOVERLAP>
1302.729

> <PUBCHEM_SHAPE_VOLUME>
322.6

> <PUBCHEM_COORDINATE_TYPE>
2
5
10

$$$$
