3246089
  -OEChem-02101610523D

 50 55  0     0  0  0  0  0  0999 V2000
    1.1020   -3.9506   -0.0710 S   0  0  0  0  0  0  0  0  0  0  0  0
   -1.3223   -2.9113    0.0326 N   0  0  0  0  0  0  0  0  0  0  0  0
    0.3914   -1.2998   -0.1365 N   0  0  0  0  0  0  0  0  0  0  0  0
   -3.6311    1.4746    0.7987 C   0  0  0  0  0  0  0  0  0  0  0  0
    5.2216   -0.8620    1.1404 C   0  0  0  0  0  0  0  0  0  0  0  0
   -3.4794    0.0288    0.3744 C   0  0  0  0  0  0  0  0  0  0  0  0
    3.9248   -0.5238    0.4352 C   0  0  0  0  0  0  0  0  0  0  0  0
   -4.7008   -0.4684   -0.1331 C   0  0  0  0  0  0  0  0  0  0  0  0
    4.0966    0.6001   -0.4038 C   0  0  0  0  0  0  0  0  0  0  0  0
   -5.0856    1.7412    0.4723 C   0  0  0  0  0  0  0  0  0  0  0  0
    6.1526    0.2044    0.6026 C   0  0  0  0  0  0  0  0  0  0  0  0
   -5.6899    0.5861   -0.0728 C   0  0  0  0  0  0  0  0  0  0  0  0
    5.4685    1.0485   -0.3006 C   0  0  0  0  0  0  0  0  0  0  0  0
   -2.3470   -0.7640    0.4389 C   0  0  0  0  0  0  0  0  0  0  0  0
    2.7048   -1.1687    0.5393 C   0  0  0  0  0  0  0  0  0  0  0  0
   -4.7960   -1.7747   -0.5833 C   0  0  0  0  0  0  0  0  0  0  0  0
    3.0377    1.0891   -1.1504 C   0  0  0  0  0  0  0  0  0  0  0  0
   -2.4432   -2.0807   -0.0149 C   0  0  0  0  0  0  0  0  0  0  0  0
    1.6568   -0.6659   -0.2148 C   0  0  0  0  0  0  0  0  0  0  0  0
   -5.7974    2.9147    0.6491 C   0  0  0  0  0  0  0  0  0  0  0  0
    7.4908    0.3955    0.8989 C   0  0  0  0  0  0  0  0  0  0  0  0
   -7.0232    0.5999   -0.4474 C   0  0  0  0  0  0  0  0  0  0  0  0
    6.1270    2.0988   -0.9182 C   0  0  0  0  0  0  0  0  0  0  0  0
   -3.6553   -2.5810   -0.5212 C   0  0  0  0  0  0  0  0  0  0  0  0
    1.8023    0.4418   -1.0501 C   0  0  0  0  0  0  0  0  0  0  0  0
   -7.1413    2.9282    0.2715 C   0  0  0  0  0  0  0  0  0  0  0  0
    8.1543    1.4543    0.2763 C   0  0  0  0  0  0  0  0  0  0  0  0
   -7.7481    1.7825   -0.2713 C   0  0  0  0  0  0  0  0  0  0  0  0
    7.4792    2.2976   -0.6231 C   0  0  0  0  0  0  0  0  0  0  0  0
    0.0502   -2.6349   -0.0177 C   0  0  0  0  0  0  0  0  0  0  0  0
   -2.9762    2.1221    0.2085 H   0  0  0  0  0  0  0  0  0  0  0  0
   -3.4483    1.5847    1.8716 H   0  0  0  0  0  0  0  0  0  0  0  0
    5.5687   -1.8594    0.8553 H   0  0  0  0  0  0  0  0  0  0  0  0
    5.1092   -0.7677    2.2243 H   0  0  0  0  0  0  0  0  0  0  0  0
   -1.4802   -0.3506    0.9387 H   0  0  0  0  0  0  0  0  0  0  0  0
    2.6034   -1.9822    1.2458 H   0  0  0  0  0  0  0  0  0  0  0  0
   -5.7244   -2.1748   -0.9767 H   0  0  0  0  0  0  0  0  0  0  0  0
    3.1495    1.9503   -1.8005 H   0  0  0  0  0  0  0  0  0  0  0  0
   -5.3306    3.7994    1.0675 H   0  0  0  0  0  0  0  0  0  0  0  0
    8.0130   -0.2542    1.5924 H   0  0  0  0  0  0  0  0  0  0  0  0
   -7.5053   -0.2763   -0.8679 H   0  0  0  0  0  0  0  0  0  0  0  0
    5.6196    2.7578   -1.6146 H   0  0  0  0  0  0  0  0  0  0  0  0
   -3.7196   -3.6082   -0.8738 H   0  0  0  0  0  0  0  0  0  0  0  0
    0.9635    0.8156   -1.6323 H   0  0  0  0  0  0  0  0  0  0  0  0
   -7.7271    3.8349    0.3979 H   0  0  0  0  0  0  0  0  0  0  0  0
    9.2055    1.6304    0.4884 H   0  0  0  0  0  0  0  0  0  0  0  0
   -8.7960    1.8178   -0.5579 H   0  0  0  0  0  0  0  0  0  0  0  0
    8.0174    3.1153   -1.0954 H   0  0  0  0  0  0  0  0  0  0  0  0
   -1.5349   -3.9022   -0.0654 H   0  0  0  0  0  0  0  0  0  0  0  0
   -0.3203   -0.7369   -0.5901 H   0  0  0  0  0  0  0  0  0  0  0  0
  1 30  2  0  0  0  0
  2 18  1  0  0  0  0
  2 30  1  0  0  0  0
  2 49  1  0  0  0  0
  3 19  1  0  0  0  0
  3 30  1  0  0  0  0
  3 50  1  0  0  0  0
  4  6  1  0  0  0  0
  4 10  1  0  0  0  0
  4 31  1  0  0  0  0
  4 32  1  0  0  0  0
  5  7  1  0  0  0  0
  5 11  1  0  0  0  0
  5 33  1  0  0  0  0
  5 34  1  0  0  0  0
  6  8  2  0  0  0  0
  6 14  1  0  0  0  0
  7  9  2  0  0  0  0
  7 15  1  0  0  0  0
  8 12  1  0  0  0  0
  8 16  1  0  0  0  0
  9 13  1  0  0  0  0
  9 17  1  0  0  0  0
 10 12  1  0  0  0  0
 10 20  2  0  0  0  0
 11 13  1  0  0  0  0
 11 21  2  0  0  0  0
 12 22  2  0  0  0  0
 13 23  2  0  0  0  0
 14 18  2  0  0  0  0
 14 35  1  0  0  0  0
 15 19  2  0  0  0  0
 15 36  1  0  0  0  0
 16 24  2  0  0  0  0
 16 37  1  0  0  0  0
 17 25  2  0  0  0  0
 17 38  1  0  0  0  0
 18 24  1  0  0  0  0
 19 25  1  0  0  0  0
 20 26  1  0  0  0  0
 20 39  1  0  0  0  0
 21 27  1  0  0  0  0
 21 40  1  0  0  0  0
 22 28  1  0  0  0  0
 22 41  1  0  0  0  0
 23 29  1  0  0  0  0
 23 42  1  0  0  0  0
 24 43  1  0  0  0  0
 25 44  1  0  0  0  0
 26 28  2  0  0  0  0
 26 45  1  0  0  0  0
 27 29  2  0  0  0  0
 27 46  1  0  0  0  0
 28 47  1  0  0  0  0
 29 48  1  0  0  0  0
M  END
> <PUBCHEM_COMPOUND_CID>
3246089

> <PUBCHEM_CONFORMER_RMSD>
0.8

> <PUBCHEM_CONFORMER_DIVERSEORDER>
1
23
7
22
5
11
19
21
16
10
2
6
18
8
13
15
20
17
3
14
24
9
4
12

> <PUBCHEM_MMFF94_PARTIAL_CHARGES>
42
1 -0.38
10 -0.14
11 -0.14
14 -0.15
15 -0.15
16 -0.15
17 -0.15
18 0.12
19 0.12
2 -0.55
20 -0.15
21 -0.15
22 -0.15
23 -0.15
24 -0.15
25 -0.15
26 -0.15
27 -0.15
28 -0.15
29 -0.15
3 -0.55
30 0.5
35 0.15
36 0.15
37 0.15
38 0.15
39 0.15
4 0.29
40 0.15
41 0.15
42 0.15
43 0.15
44 0.15
45 0.15
46 0.15
47 0.15
48 0.15
49 0.37
5 0.29
50 0.37
6 -0.14
7 -0.14

> <PUBCHEM_EFFECTIVE_ROTOR_COUNT>
4.4

> <PUBCHEM_PHARMACOPHORE_FEATURES>
9
1 1 acceptor
1 2 donor
1 3 donor
5 4 6 8 10 12 rings
5 5 7 9 11 13 rings
6 10 12 20 22 26 28 rings
6 11 13 21 23 27 29 rings
6 6 8 14 16 18 24 rings
6 7 9 15 17 19 25 rings

> <PUBCHEM_HEAVY_ATOM_COUNT>
30

> <PUBCHEM_ATOM_DEF_STEREO_COUNT>
0

> <PUBCHEM_ATOM_UDEF_STEREO_COUNT>
0

> <PUBCHEM_BOND_DEF_STEREO_COUNT>
0

> <PUBCHEM_BOND_UDEF_STEREO_COUNT>
0

> <PUBCHEM_ISOTOPIC_ATOM_COUNT>
0

> <PUBCHEM_COMPONENT_COUNT>
1

> <PUBCHEM_CACTVS_TAUTO_COUNT>
2

> <PUBCHEM_CONFORMER_ID>
0031880900000001

> <PUBCHEM_MMFF94_ENERGY>
132.6438

> <PUBCHEM_FEATURE_SELFOVERLAP>
46.043

> <PUBCHEM_SHAPE_FINGERPRINT>
10 15 18114184133494986913
10050765 1 18411419480152140319
10190108 129 17095519549250758066
10411042 1 17836081553070672143
10906281 52 17822301240679087438
10939801 23 18260269668141785948
11475781 23 18201729453054617724
11991303 11 16056314063667460508
12013929 112 18264227884969941902
12107183 9 18263073332656350066
12236239 1 18261107526230095138
12838862 33 18337657660133216237
12895837 130 18413108381593105623
13248334 5 18121780530441373562
13947935 32 18188780577966366265
14040222 383 18342455967758058881
14294032 229 18202283654234263183
14347424 109 18334288739863515690
14394314 77 18408042901306943213
14931854 50 17703513211699548273
15064981 113 17060064679330197268
15183329 4 18342458144605163129
15439362 3 18340489971927170454
15461852 350 17846775247877817751
1577012 14 18408318899883320610
15803439 3 16486971795509574799
15840311 113 18187646864944397614
16126227 98 18341898468302622257
16758388 162 18261663814794813928
16989713 51 17345182510311539927
16992752 21 18130495453973186559
18608769 82 18341053012828681419
19053607 189 18341602698883466674
19302320 297 18187654612876054357
20511986 3 18334568032311167241
20554085 129 17988630888061600162
20691028 202 18337951315716358028
20982279 24 14708026806954688448
21033648 29 18129646613061760994
21298829 104 18410012117872991709
21774942 28 17988365866782794656
22122407 14 18116442620810330208
23522609 53 17605005887205070012
249057 25 17532379844870059327
2748736 6 18411133611174959109
2838139 119 18271522099740375646
306946 40 17060326462910874576
3411729 13 18337107874233763474
3633792 109 18271812285744589210
3918712 181 18413386518721624017
397830 11 12035733175844744678
4073 2 18260833708499981466
44249763 50 17417512709495491823
445580 204 18342174475363828911
44802255 64 17418096571708215975
4516262 110 18187072928712728471
5028188 123 18264497347059969878
5385378 56 18261672571674194618
5470011 282 12751228225235701904
54728670 133 16154248542967455708
563151 74 16950564350711392155
563151 97 18412257350793127079
5776283 40 18343580772079417929
5911458 16 18334576841125639144
6058803 2 17753328966241661246
6299153 45 18335417937925621810
6327066 14 18411699868395460935
6328613 192 18262519325061643732
636775 72 18341891939235596216
636775 8 8286209375000983768
7970288 3 9223234026813545969
99344 41 18411135831836698362
9980921 7 18113893867548637533
9981440 41 18336272318453406675

> <PUBCHEM_SHAPE_MULTIPOLES>
611.27
24.72
3.71
0.94
7.88
1.97
0.02
-23.4
-1.16
-3.16
0.13
0.69
-0.17
-1.98

> <PUBCHEM_SHAPE_SELFOVERLAP>
1380.023

> <PUBCHEM_SHAPE_VOLUME>
322.8

> <PUBCHEM_COORDINATE_TYPE>
2
5
10

$$$$
