2163439
  -OEChem-02101610493D

 57 60  0     0  0  0  0  0  0999 V2000
    2.6068    0.3106   -1.1239 S   0  0  0  0  0  0  0  0  0  0  0  0
   -6.5423    0.8275   -0.7018 S   0  0  0  0  0  0  0  0  0  0  0  0
    6.4043    0.6614   -0.5248 O   0  0  0  0  0  0  0  0  0  0  0  0
    0.0672   -0.4175   -1.9300 O   0  0  0  0  0  0  0  0  0  0  0  0
    5.2447    1.3259   -2.3884 O   0  0  0  0  0  0  0  0  0  0  0  0
    1.6797    1.7152    3.3041 O   0  0  0  0  0  0  0  0  0  0  0  0
    0.4603   -0.0357    0.3515 N   0  0  0  0  0  0  0  0  0  0  0  0
   -4.4330   -1.0639    0.0474 N   0  0  0  0  0  0  0  0  0  0  0  0
    2.2541   -0.4773    3.5467 N   0  0  0  0  0  0  0  0  0  0  0  0
   -1.7311   -0.6505   -0.4730 C   0  0  0  0  0  0  0  0  0  0  0  0
   -2.1975   -1.9370   -0.1703 C   0  0  0  0  0  0  0  0  0  0  0  0
    3.9477    0.9050    0.9853 C   0  0  0  0  0  0  0  0  0  0  0  0
    2.6202    0.6317    1.4249 C   0  0  0  0  0  0  0  0  0  0  0  0
    1.8343    0.3073    0.3808 C   0  0  0  0  0  0  0  0  0  0  0  0
    4.0794    0.7673   -0.3790 C   0  0  0  0  0  0  0  0  0  0  0  0
   -3.5748   -2.1006    0.0867 C   0  0  0  0  0  0  0  0  0  0  0  0
   -3.9426    0.1616   -0.2486 C   0  0  0  0  0  0  0  0  0  0  0  0
   -2.6130    0.4198   -0.5144 C   0  0  0  0  0  0  0  0  0  0  0  0
   -0.3269   -0.3683   -0.7566 C   0  0  0  0  0  0  0  0  0  0  0  0
   -1.3301   -3.0414   -0.1205 C   0  0  0  0  0  0  0  0  0  0  0  0
   -4.9283    1.2100   -0.2678 C   0  0  0  0  0  0  0  0  0  0  0  0
    5.0585    1.2924    1.8911 C   0  0  0  0  0  0  0  0  0  0  0  0
   -4.0375   -3.3788    0.3874 C   0  0  0  0  0  0  0  0  0  0  0  0
    5.2343    0.9505   -1.1989 C   0  0  0  0  0  0  0  0  0  0  0  0
    7.5032    0.1659   -1.2982 C   0  0  0  0  0  0  0  0  0  0  0  0
    2.1628    0.6890    2.7910 C   0  0  0  0  0  0  0  0  0  0  0  0
   -1.8200   -4.3085    0.1827 C   0  0  0  0  0  0  0  0  0  0  0  0
   -3.1754   -4.4770    0.4370 C   0  0  0  0  0  0  0  0  0  0  0  0
   -4.7813    2.5512    0.0242 C   0  0  0  0  0  0  0  0  0  0  0  0
   -7.0435    2.4523   -0.4997 C   0  0  0  0  0  0  0  0  0  0  0  0
   -6.0047    3.2690   -0.1101 C   0  0  0  0  0  0  0  0  0  0  0  0
    8.6982   -0.0578   -0.3841 C   0  0  0  0  0  0  0  0  0  0  0  0
    7.0821   -1.1139   -2.0041 C   0  0  0  0  0  0  0  0  0  0  0  0
   -8.4559    2.8146   -0.7469 C   0  0  0  0  0  0  0  0  0  0  0  0
   -2.2587    1.4174   -0.7557 H   0  0  0  0  0  0  0  0  0  0  0  0
    0.0080   -0.0301    1.2633 H   0  0  0  0  0  0  0  0  0  0  0  0
   -0.2653   -2.9409   -0.3157 H   0  0  0  0  0  0  0  0  0  0  0  0
    5.6229    2.1401    1.4881 H   0  0  0  0  0  0  0  0  0  0  0  0
    5.7422    0.4508    2.0439 H   0  0  0  0  0  0  0  0  0  0  0  0
    4.6950    1.6016    2.8764 H   0  0  0  0  0  0  0  0  0  0  0  0
   -5.0951   -3.5371    0.5904 H   0  0  0  0  0  0  0  0  0  0  0  0
    7.7809    0.9253   -2.0395 H   0  0  0  0  0  0  0  0  0  0  0  0
   -1.1471   -5.1596    0.2202 H   0  0  0  0  0  0  0  0  0  0  0  0
   -3.5663   -5.4621    0.6744 H   0  0  0  0  0  0  0  0  0  0  0  0
   -3.8474    3.0085    0.3270 H   0  0  0  0  0  0  0  0  0  0  0  0
   -6.1121    4.3308    0.0722 H   0  0  0  0  0  0  0  0  0  0  0  0
    9.5674   -0.4177   -0.9429 H   0  0  0  0  0  0  0  0  0  0  0  0
    8.9691    0.8743    0.1233 H   0  0  0  0  0  0  0  0  0  0  0  0
    8.4585   -0.7839    0.4006 H   0  0  0  0  0  0  0  0  0  0  0  0
    7.9312   -1.5715   -2.5224 H   0  0  0  0  0  0  0  0  0  0  0  0
    6.3005   -0.9402   -2.7494 H   0  0  0  0  0  0  0  0  0  0  0  0
    6.6812   -1.8404   -1.2883 H   0  0  0  0  0  0  0  0  0  0  0  0
   -8.7416    2.5954   -1.7811 H   0  0  0  0  0  0  0  0  0  0  0  0
   -8.6244    3.8833   -0.5766 H   0  0  0  0  0  0  0  0  0  0  0  0
   -9.1250    2.2635   -0.0775 H   0  0  0  0  0  0  0  0  0  0  0  0
    1.9408   -0.4996    4.5114 H   0  0  0  0  0  0  0  0  0  0  0  0
    2.6332   -1.3386    3.1659 H   0  0  0  0  0  0  0  0  0  0  0  0
  1 14  1  0  0  0  0
  1 15  1  0  0  0  0
  2 21  1  0  0  0  0
  2 30  1  0  0  0  0
  3 24  1  0  0  0  0
  3 25  1  0  0  0  0
  4 19  2  0  0  0  0
  5 24  2  0  0  0  0
  6 26  2  0  0  0  0
  7 14  1  0  0  0  0
  7 19  1  0  0  0  0
  7 36  1  0  0  0  0
  8 16  1  0  0  0  0
  8 17  2  0  0  0  0
  9 26  1  0  0  0  0
  9 56  1  0  0  0  0
  9 57  1  0  0  0  0
 10 11  1  0  0  0  0
 10 18  2  0  0  0  0
 10 19  1  0  0  0  0
 11 16  1  0  0  0  0
 11 20  2  0  0  0  0
 12 13  1  0  0  0  0
 12 15  2  0  0  0  0
 12 22  1  0  0  0  0
 13 14  2  0  0  0  0
 13 26  1  0  0  0  0
 15 24  1  0  0  0  0
 16 23  2  0  0  0  0
 17 18  1  0  0  0  0
 17 21  1  0  0  0  0
 18 35  1  0  0  0  0
 20 27  1  0  0  0  0
 20 37  1  0  0  0  0
 21 29  2  0  0  0  0
 22 38  1  0  0  0  0
 22 39  1  0  0  0  0
 22 40  1  0  0  0  0
 23 28  1  0  0  0  0
 23 41  1  0  0  0  0
 25 32  1  0  0  0  0
 25 33  1  0  0  0  0
 25 42  1  0  0  0  0
 27 28  2  0  0  0  0
 27 43  1  0  0  0  0
 28 44  1  0  0  0  0
 29 31  1  0  0  0  0
 29 45  1  0  0  0  0
 30 31  2  0  0  0  0
 30 34  1  0  0  0  0
 31 46  1  0  0  0  0
 32 47  1  0  0  0  0
 32 48  1  0  0  0  0
 32 49  1  0  0  0  0
 33 50  1  0  0  0  0
 33 51  1  0  0  0  0
 33 52  1  0  0  0  0
 34 53  1  0  0  0  0
 34 54  1  0  0  0  0
 34 55  1  0  0  0  0
M  END
> <PUBCHEM_COMPOUND_CID>
2163439

> <PUBCHEM_CONFORMER_RMSD>
1

> <PUBCHEM_CONFORMER_DIVERSEORDER>
4
81
68
93
6
62
104
58
14
38
71
75
48
91
96
57
97
82
66
52
45
29
79
105
102
98
16
86
78
51
63
99
23
24
64
65
5
83
108
1
74
26
36
60
40
44
49
25
43
53
39
15
55
47
54
101
37
33
46
8
92
30
20
21
59
35
61
19
95
42
11
106
90
88
7
76
80
31
56
77
70
89
10
50
2
84
94
41
107
17
85
9
73
69
72
100
109
3
22
87
27
32
28
12
34
13
67
18
103

> <PUBCHEM_MMFF94_PARTIAL_CHARGES>
41
1 -0.08
10 0.09
12 -0.18
13 -0.09
14 0.1
15 -0.05
16 0.31
17 0.36
18 -0.15
19 0.54
2 -0.08
20 -0.15
21 -0.01
22 0.18
23 -0.15
24 0.81
25 0.28
26 0.72
27 -0.15
28 -0.15
29 -0.15
3 -0.43
30 -0.14
31 -0.15
34 0.18
35 0.15
36 0.37
37 0.15
4 -0.57
41 0.15
43 0.15
44 0.15
45 0.15
46 0.15
5 -0.57
56 0.37
57 0.37
6 -0.57
7 -0.49
8 -0.62
9 -0.8

> <PUBCHEM_EFFECTIVE_ROTOR_COUNT>
8

> <PUBCHEM_PHARMACOPHORE_FEATURES>
11
1 4 acceptor
1 5 acceptor
1 6 acceptor
1 7 donor
1 8 acceptor
1 9 donor
3 25 32 33 hydrophobe
5 1 12 13 14 15 rings
5 2 21 29 30 31 rings
6 11 16 20 23 27 28 rings
6 8 10 11 16 17 18 rings

> <PUBCHEM_HEAVY_ATOM_COUNT>
34

> <PUBCHEM_ATOM_DEF_STEREO_COUNT>
0

> <PUBCHEM_ATOM_UDEF_STEREO_COUNT>
0

> <PUBCHEM_BOND_DEF_STEREO_COUNT>
0

> <PUBCHEM_BOND_UDEF_STEREO_COUNT>
0

> <PUBCHEM_ISOTOPIC_ATOM_COUNT>
0

> <PUBCHEM_COMPONENT_COUNT>
1

> <PUBCHEM_CACTVS_TAUTO_COUNT>
9

> <PUBCHEM_CONFORMER_ID>
002102EF00000004

> <PUBCHEM_MMFF94_ENERGY>
103.1428

> <PUBCHEM_FEATURE_SELFOVERLAP>
55.854

> <PUBCHEM_SHAPE_FINGERPRINT>
10010297 198 16734094648696987059
10319926 262 18340763840674308178
10411042 1 17832712640874207287
10670039 82 18200595787531256393
10674148 151 18041000640415327620
11377469 6 17243293005306387287
11545043 162 18200878503605127306
11796584 16 18412830201247032518
1200032 147 18041003886313331963
12107183 9 18189322485883611562
12120059 9 17346313779270088462
12166972 35 13254790235604465475
12342043 65 17699295669827141474
12440605 4 16412135611287561418
12758862 11 18201721752220778640
13540713 4 17844516915086721873
13782708 43 17844534511884777246
15183329 4 17489870397272557888
15230672 131 18408604726263905990
15297060 5 18341057328727371361
15328829 1 17386286622891716079
15439362 3 18192998123834067239
15537594 2 17095235930320391252
15890870 6 18336547115225353421
15927050 60 18411416194549515015
19053607 189 18046896092678106057
19303781 99 8068584069450830537
19304144 158 17768799111866538528
19841028 212 18337110057269471098
20505436 4 17749388148340905115
20554085 129 18340756054336268593
21033648 29 17774142621779656177
21315764 119 18410583872910050054
21772528 278 16081095908785095722
21781055 127 18199183984424794249
21792961 116 17775016678591041876
21814621 53 18271243924116083320
23516275 137 17824276912144029682
23522609 53 17531261586079113308
23559900 14 18342457071110920854
23569943 247 14762693390477178508
23729398 52 17762066441582303543
24771750 20 18268146445100274319
38570 142 17603874385916976842
4144715 1 18266461099589802264
508180 173 16343421705081531001
508706 21 18200020889204969227
5265222 85 18195817490933629686
563151 40 18113903762114388386
58083652 198 16056597677928040306
6009941 240 18343306968388446774
6086070 43 16988835094594008686
6523845 18 18272381888565254075
6697151 62 16487255478589754058
9896288 288 18187373172786707163
9981440 41 18335420133207642251

> <PUBCHEM_SHAPE_MULTIPOLES>
668.98
21.81
4.07
2.17
12.11
4.97
-1.99
-15.84
9.35
-10.33
-0.39
4.61
-0.78
1.76

> <PUBCHEM_SHAPE_SELFOVERLAP>
1442.28

> <PUBCHEM_SHAPE_VOLUME>
371.6

> <PUBCHEM_COORDINATE_TYPE>
2
5
10

$$$$
