9584979
  -OEChem-02101606023D

 26 27  0     0  0  0  0  0  0999 V2000
   -1.1892    2.9565    0.0034 Cl  0  0  0  0  0  0  0  0  0  0  0  0
   -4.3798    2.5116   -0.0051 Cl  0  0  0  0  0  0  0  0  0  0  0  0
   -3.5763   -2.8889   -0.0002 Cl  0  0  0  0  0  0  0  0  0  0  0  0
    1.2404   -0.9462    0.0012 S   0  0  0  0  0  0  0  0  0  0  0  0
    1.1147   -1.6587   -1.2575 O   0  0  0  0  0  0  0  0  0  0  0  0
    1.0695   -1.6478    1.2611 O   0  0  0  0  0  0  0  0  0  0  0  0
   -5.0585   -0.3335   -0.0050 O   0  0  0  0  0  0  0  0  0  0  0  0
    0.3070    0.3889    0.0012 N   0  0  0  0  0  0  0  0  0  0  0  0
    2.8831   -0.2836    0.0004 C   0  0  0  0  0  0  0  0  0  0  0  0
   -0.9800    0.2287    0.0018 C   0  0  0  0  0  0  0  0  0  0  0  0
    3.5067   -0.0320    1.2081 C   0  0  0  0  0  0  0  0  0  0  0  0
    3.5055   -0.0312   -1.2078 C   0  0  0  0  0  0  0  0  0  0  0  0
   -1.9191    1.3854    0.0004 C   0  0  0  0  0  0  0  0  0  0  0  0
   -1.5784   -1.1245    0.0023 C   0  0  0  0  0  0  0  0  0  0  0  0
   -3.2462    1.2027   -0.0015 C   0  0  0  0  0  0  0  0  0  0  0  0
   -2.9003   -1.3029    0.0004 C   0  0  0  0  0  0  0  0  0  0  0  0
    4.7998    0.4911    1.2078 C   0  0  0  0  0  0  0  0  0  0  0  0
    4.7986    0.4919   -1.2083 C   0  0  0  0  0  0  0  0  0  0  0  0
   -3.8433   -0.1605   -0.0022 C   0  0  0  0  0  0  0  0  0  0  0  0
    5.4456    0.7531   -0.0005 C   0  0  0  0  0  0  0  0  0  0  0  0
    3.0175   -0.2213    2.1584 H   0  0  0  0  0  0  0  0  0  0  0  0
    3.0162   -0.2178   -2.1585 H   0  0  0  0  0  0  0  0  0  0  0  0
   -0.9843   -2.0268   -0.0010 H   0  0  0  0  0  0  0  0  0  0  0  0
    5.3031    0.6966    2.1481 H   0  0  0  0  0  0  0  0  0  0  0  0
    5.3009    0.6984   -2.1488 H   0  0  0  0  0  0  0  0  0  0  0  0
    6.4520    1.1614   -0.0009 H   0  0  0  0  0  0  0  0  0  0  0  0
  1 13  1  0  0  0  0
  2 15  1  0  0  0  0
  3 16  1  0  0  0  0
  4  5  2  0  0  0  0
  4  6  2  0  0  0  0
  4  8  1  0  0  0  0
  4  9  1  0  0  0  0
  7 19  2  0  0  0  0
  8 10  2  0  0  0  0
  9 11  2  0  0  0  0
  9 12  1  0  0  0  0
 10 13  1  0  0  0  0
 10 14  1  0  0  0  0
 11 17  1  0  0  0  0
 11 21  1  0  0  0  0
 12 18  2  0  0  0  0
 12 22  1  0  0  0  0
 13 15  2  0  0  0  0
 14 16  2  0  0  0  0
 14 23  1  0  0  0  0
 15 19  1  0  0  0  0
 16 19  1  0  0  0  0
 17 20  2  0  0  0  0
 17 24  1  0  0  0  0
 18 20  1  0  0  0  0
 18 25  1  0  0  0  0
 20 26  1  0  0  0  0
M  END
> <PUBCHEM_COMPOUND_CID>
9584979

> <PUBCHEM_CONFORMER_RMSD>
0.6

> <PUBCHEM_CONFORMER_DIVERSEORDER>
1

> <PUBCHEM_MMFF94_PARTIAL_CHARGES>
26
1 -0.14
10 0.42
11 -0.15
12 -0.15
13 0.15
14 -0.14
15 0.15
16 0.15
17 -0.15
18 -0.15
19 0.54
2 -0.14
20 -0.15
21 0.15
22 0.15
23 0.15
24 0.15
25 0.15
26 0.15
3 -0.14
4 1.5
5 -0.65
6 -0.65
7 -0.57
8 -0.64
9 -0.01

> <PUBCHEM_EFFECTIVE_ROTOR_COUNT>
2

> <PUBCHEM_PHARMACOPHORE_FEATURES>
7
1 5 acceptor
1 6 acceptor
1 7 acceptor
1 8 acceptor
1 8 donor
6 10 13 14 15 16 19 rings
6 9 11 12 17 18 20 rings

> <PUBCHEM_HEAVY_ATOM_COUNT>
20

> <PUBCHEM_ATOM_DEF_STEREO_COUNT>
0

> <PUBCHEM_ATOM_UDEF_STEREO_COUNT>
0

> <PUBCHEM_BOND_DEF_STEREO_COUNT>
1

> <PUBCHEM_BOND_UDEF_STEREO_COUNT>
0

> <PUBCHEM_ISOTOPIC_ATOM_COUNT>
0

> <PUBCHEM_COMPONENT_COUNT>
1

> <PUBCHEM_CACTVS_TAUTO_COUNT>
1

> <PUBCHEM_CONFORMER_ID>
0092415300000001

> <PUBCHEM_MMFF94_ENERGY>
45.7787

> <PUBCHEM_FEATURE_SELFOVERLAP>
35.574

> <PUBCHEM_SHAPE_FINGERPRINT>
10319926 262 18269536305238349130
10366900 7 17917701392879397297
10411042 1 18050287269905463659
10498660 4 18340769247748132824
10670039 82 18334868173664269772
10906281 52 18341061735585148685
10912923 1 17749387096421849336
11132069 177 18411420600599501516
11578080 2 13756981121110494729
12107183 9 17684355166852786258
12173636 292 18194678164515855941
12236239 1 17676203580522324234
12390115 104 18129392505796391481
12403259 415 17917711336082199816
12596602 18 17095526235892417352
12616971 3 17312820468326775260
13214271 11 18343297085199180823
14081887 123 18340198609581562881
14341114 328 18186237338181748936
14787075 74 18042403706571139226
15196674 1 18338516339579196901
15375358 24 18272367538541141903
15961568 22 18265892648200850404
16087824 20 18411416217004643375
16988056 13 15234389062176101613
17349148 13 17458345255973963234
18186145 218 16702302369365620958
19784866 170 18342742909721669607
200 152 16153699938326146894
20510252 161 18199468775543576857
20511986 3 17677032608110822469
20645477 56 18412266095535717873
20645477 70 16486982756682533038
20715895 44 17537704504969417573
21033648 29 17417800751630023648
21267235 1 18337680801421839971
2297311 6 18342750627730369468
23175994 123 16845576443466777145
23227448 37 18410855464555569933
23402539 116 18335697290692641798
23557571 272 18272100382727076405
23559900 14 18270124492076833374
34797466 226 17917438665292879180
34934 24 18336541625807950193
3545911 37 18413111636798436366
4340502 62 16443921453343892529
474 4 17530692008764001196
5104073 3 18338519616882091091
5281201 14 17489597753418579220
573450 72 18187918482733598914
59755656 215 18268714922676150838
633830 44 17967820431556438854
9709674 26 18270966747721556535
9925002 15 17482822764009026142

> <PUBCHEM_SHAPE_MULTIPOLES>
398.46
11.34
2.58
1.03
6.65
0.42
0
2.05
-0.02
-4.07
0
1.38
-0.13
0

> <PUBCHEM_SHAPE_SELFOVERLAP>
817.382

> <PUBCHEM_SHAPE_VOLUME>
231.3

> <PUBCHEM_COORDINATE_TYPE>
2
5
10

$$$$
