291537
  -OEChem-02101610493D

 26 27  0     0  0  0  0  0  0999 V2000
   -4.3401   -2.7762    0.0027 Cl  0  0  0  0  0  0  0  0  0  0  0  0
   -3.6785    2.6646   -0.0012 Cl  0  0  0  0  0  0  0  0  0  0  0  0
    1.1537    0.8095   -0.0005 S   0  0  0  0  0  0  0  0  0  0  0  0
    1.0127    1.5193    1.2582 O   0  0  0  0  0  0  0  0  0  0  0  0
    0.9658    1.5069   -1.2604 O   0  0  0  0  0  0  0  0  0  0  0  0
   -5.1246    0.0798    0.0007 O   0  0  0  0  0  0  0  0  0  0  0  0
    0.2493   -0.5464    0.0006 N   0  0  0  0  0  0  0  0  0  0  0  0
    2.8111    0.1849   -0.0008 C   0  0  0  0  0  0  0  0  0  0  0  0
   -1.0392   -0.4158    0.0010 C   0  0  0  0  0  0  0  0  0  0  0  0
    3.4396   -0.0528   -1.2090 C   0  0  0  0  0  0  0  0  0  0  0  0
    3.4405   -0.0519    1.2070 C   0  0  0  0  0  0  0  0  0  0  0  0
   -1.9575   -1.5786    0.0020 C   0  0  0  0  0  0  0  0  0  0  0  0
   -1.6527    0.9306    0.0001 C   0  0  0  0  0  0  0  0  0  0  0  0
    4.7447   -0.5454   -1.2093 C   0  0  0  0  0  0  0  0  0  0  0  0
    4.7456   -0.5442    1.2067 C   0  0  0  0  0  0  0  0  0  0  0  0
    5.3977   -0.7909   -0.0016 C   0  0  0  0  0  0  0  0  0  0  0  0
   -3.2828   -1.4146    0.0021 C   0  0  0  0  0  0  0  0  0  0  0  0
   -2.9785    1.0894    0.0003 C   0  0  0  0  0  0  0  0  0  0  0  0
   -3.9068   -0.0682    0.0014 C   0  0  0  0  0  0  0  0  0  0  0  0
    2.9454    0.1243   -2.1590 H   0  0  0  0  0  0  0  0  0  0  0  0
    2.9479    0.1241    2.1581 H   0  0  0  0  0  0  0  0  0  0  0  0
   -1.5020   -2.5637    0.0024 H   0  0  0  0  0  0  0  0  0  0  0  0
   -1.0769    1.8444    0.0047 H   0  0  0  0  0  0  0  0  0  0  0  0
    5.2519   -0.7395   -2.1499 H   0  0  0  0  0  0  0  0  0  0  0  0
    5.2535   -0.7379    2.1469 H   0  0  0  0  0  0  0  0  0  0  0  0
    6.4135   -1.1753   -0.0018 H   0  0  0  0  0  0  0  0  0  0  0  0
  1 17  1  0  0  0  0
  2 18  1  0  0  0  0
  3  4  2  0  0  0  0
  3  5  2  0  0  0  0
  3  7  1  0  0  0  0
  3  8  1  0  0  0  0
  6 19  2  0  0  0  0
  7  9  2  0  0  0  0
  8 10  2  0  0  0  0
  8 11  1  0  0  0  0
  9 12  1  0  0  0  0
  9 13  1  0  0  0  0
 10 14  1  0  0  0  0
 10 20  1  0  0  0  0
 11 15  2  0  0  0  0
 11 21  1  0  0  0  0
 12 17  2  0  0  0  0
 12 22  1  0  0  0  0
 13 18  2  0  0  0  0
 13 23  1  0  0  0  0
 14 16  2  0  0  0  0
 14 24  1  0  0  0  0
 15 16  1  0  0  0  0
 15 25  1  0  0  0  0
 16 26  1  0  0  0  0
 17 19  1  0  0  0  0
 18 19  1  0  0  0  0
M  END
> <PUBCHEM_COMPOUND_CID>
291537

> <PUBCHEM_CONFORMER_RMSD>
0.6

> <PUBCHEM_CONFORMER_DIVERSEORDER>
1

> <PUBCHEM_MMFF94_PARTIAL_CHARGES>
26
1 -0.14
10 -0.15
11 -0.15
12 -0.14
13 -0.14
14 -0.15
15 -0.15
16 -0.15
17 0.15
18 0.15
19 0.54
2 -0.14
20 0.15
21 0.15
22 0.15
23 0.15
24 0.15
25 0.15
26 0.15
3 1.5
4 -0.65
5 -0.65
6 -0.57
7 -0.64
8 -0.01
9 0.42

> <PUBCHEM_EFFECTIVE_ROTOR_COUNT>
2

> <PUBCHEM_PHARMACOPHORE_FEATURES>
7
1 4 acceptor
1 5 acceptor
1 6 acceptor
1 7 acceptor
1 7 donor
6 8 10 11 14 15 16 rings
6 9 12 13 17 18 19 rings

> <PUBCHEM_HEAVY_ATOM_COUNT>
19

> <PUBCHEM_ATOM_DEF_STEREO_COUNT>
0

> <PUBCHEM_ATOM_UDEF_STEREO_COUNT>
0

> <PUBCHEM_BOND_DEF_STEREO_COUNT>
0

> <PUBCHEM_BOND_UDEF_STEREO_COUNT>
0

> <PUBCHEM_ISOTOPIC_ATOM_COUNT>
0

> <PUBCHEM_COMPONENT_COUNT>
1

> <PUBCHEM_CACTVS_TAUTO_COUNT>
1

> <PUBCHEM_CONFORMER_ID>
000472D100000001

> <PUBCHEM_MMFF94_ENERGY>
42.6207

> <PUBCHEM_FEATURE_SELFOVERLAP>
35.574

> <PUBCHEM_SHAPE_FINGERPRINT>
10062212 137 18186239519766659339
10912923 1 17894632552402144488
11046707 91 18407758153231940583
11545043 162 18202563973479012898
11796584 16 18269276760317594094
12107183 9 17684922510383587042
12236239 1 17676209060863638172
12346177 29 18342167869398192231
12390115 104 18056488253593154105
12403259 226 18200026390999871337
12507560 40 18130218354644620032
13134695 92 16200144404932447808
13167823 11 18260267456011562490
13288520 33 18412547612897469183
13583140 156 17489860544701723662
13675066 3 17917706916086033392
13760787 5 16732704935114515446
14252887 29 16988850466999112950
14386348 63 17918276437487156238
14573314 32 18130508531135187188
15042514 8 18338519767871084091
15196674 1 18338516446990328547
15375358 24 17775280530741871860
17804303 29 18412544344543349505
17834072 33 18040719190453988340
17844677 252 18412830196255661544
1813 80 16950851293350541486
19489759 90 18272366447566694545
200 152 16660641830834045692
20281475 54 18186794773434273738
21033648 29 17059761248338264122
21033650 10 18045245776894176244
21065201 7 18341609296153770842
21267235 1 18335428971353596595
22646028 1 18187362159719698598
2306618 200 18201446874329230353
23175994 123 17346881152169126273
23402539 116 18341886399270395325
23557571 272 18130517339965639197
23559900 14 18341325694867841136
26918003 58 17275385408689126882
3004659 81 18261396594999206870
312423 11 18116445906138395885
335352 9 18410292519719613493
4214541 1 18410855442964389697
5104073 3 18269559488970503595
5385378 56 18126576609241017491
559249 180 18262513676583667506
573450 72 18261386728620155322
58051976 100 18335137609335712383
59755656 215 18341048524102242095
602551 16 18410853257295320122
9709674 26 18194682794063092611

> <PUBCHEM_SHAPE_MULTIPOLES>
376.01
11.85
2.16
1.05
5.1
0.05
0
3.48
0
-3.93
0
1.42
-0.1
0.01

> <PUBCHEM_SHAPE_SELFOVERLAP>
777.967

> <PUBCHEM_SHAPE_VOLUME>
216

> <PUBCHEM_COORDINATE_TYPE>
2
5
10

$$$$
