3397993
  -OEChem-02101610503D

 34 35  0     1  0  0  0  0  0999 V2000
    0.9330    1.8471   -0.0158 S   0  0  0  0  0  0  0  0  0  0  0  0
   -4.0106    0.5742   -0.7841 O   0  0  0  0  0  0  0  0  0  0  0  0
   -1.7792    1.7252   -0.3689 O   0  0  0  0  0  0  0  0  0  0  0  0
    2.1906   -2.5648   -1.2245 O   0  0  0  0  0  0  0  0  0  0  0  0
   -0.5566   -0.2907   -0.3559 N   0  0  0  0  0  0  0  0  0  0  0  0
    1.8845   -2.6877    1.0310 N   0  0  0  0  0  0  0  0  0  0  0  0
   -2.9133   -0.3343   -0.6572 C   0  0  2  0  0  0  0  0  0  0  0  0
   -3.2080   -1.2421    0.5217 C   0  0  0  0  0  0  0  0  0  0  0  0
   -4.1307   -0.3947    1.3648 C   0  0  0  0  0  0  0  0  0  0  0  0
   -4.9091    0.3632    0.3133 C   0  0  0  0  0  0  0  0  0  0  0  0
   -1.6920    0.5041   -0.4429 C   0  0  0  0  0  0  0  0  0  0  0  0
    0.7498    0.1631   -0.1582 C   0  0  0  0  0  0  0  0  0  0  0  0
    1.9173   -0.5254   -0.0597 C   0  0  0  0  0  0  0  0  0  0  0  0
    3.0188    0.3555    0.1417 C   0  0  0  0  0  0  0  0  0  0  0  0
    2.6247    1.6747    0.1853 C   0  0  0  0  0  0  0  0  0  0  0  0
    4.4265   -0.0924    0.2869 C   0  0  0  0  0  0  0  0  0  0  0  0
    3.4532    2.8868    0.3746 C   0  0  0  0  0  0  0  0  0  0  0  0
    2.0010   -1.9619   -0.1520 C   0  0  0  0  0  0  0  0  0  0  0  0
   -2.8019   -0.8950   -1.5916 H   0  0  0  0  0  0  0  0  0  0  0  0
   -2.3353   -1.5897    1.0809 H   0  0  0  0  0  0  0  0  0  0  0  0
   -3.7535   -2.1272    0.1718 H   0  0  0  0  0  0  0  0  0  0  0  0
   -4.7708   -0.9752    2.0341 H   0  0  0  0  0  0  0  0  0  0  0  0
   -3.5420    0.3037    1.9714 H   0  0  0  0  0  0  0  0  0  0  0  0
   -5.7561   -0.2257   -0.0548 H   0  0  0  0  0  0  0  0  0  0  0  0
   -5.2821    1.3251    0.6755 H   0  0  0  0  0  0  0  0  0  0  0  0
   -0.6537   -1.2983   -0.4534 H   0  0  0  0  0  0  0  0  0  0  0  0
    4.6539   -0.2862    1.3403 H   0  0  0  0  0  0  0  0  0  0  0  0
    4.6174   -1.0105   -0.2780 H   0  0  0  0  0  0  0  0  0  0  0  0
    5.1307    0.6605   -0.0822 H   0  0  0  0  0  0  0  0  0  0  0  0
    4.0151    3.1081   -0.5390 H   0  0  0  0  0  0  0  0  0  0  0  0
    2.8572    3.7710    0.6246 H   0  0  0  0  0  0  0  0  0  0  0  0
    4.1713    2.7408    1.1887 H   0  0  0  0  0  0  0  0  0  0  0  0
    1.7393   -2.2365    1.9287 H   0  0  0  0  0  0  0  0  0  0  0  0
    1.9433   -3.7005    1.0293 H   0  0  0  0  0  0  0  0  0  0  0  0
  1 12  1  0  0  0  0
  1 15  1  0  0  0  0
  2  7  1  0  0  0  0
  2 10  1  0  0  0  0
  3 11  2  0  0  0  0
  4 18  2  0  0  0  0
  5 11  1  0  0  0  0
  5 12  1  0  0  0  0
  5 26  1  0  0  0  0
  6 18  1  0  0  0  0
  6 33  1  0  0  0  0
  6 34  1  0  0  0  0
  7  8  1  0  0  0  0
  7 11  1  0  0  0  0
  7 19  1  0  0  0  0
  8  9  1  0  0  0  0
  8 20  1  0  0  0  0
  8 21  1  0  0  0  0
  9 10  1  0  0  0  0
  9 22  1  0  0  0  0
  9 23  1  0  0  0  0
 10 24  1  0  0  0  0
 10 25  1  0  0  0  0
 12 13  2  0  0  0  0
 13 14  1  0  0  0  0
 13 18  1  0  0  0  0
 14 15  2  0  0  0  0
 14 16  1  0  0  0  0
 15 17  1  0  0  0  0
 16 27  1  0  0  0  0
 16 28  1  0  0  0  0
 16 29  1  0  0  0  0
 17 30  1  0  0  0  0
 17 31  1  0  0  0  0
 17 32  1  0  0  0  0
M  END
> <PUBCHEM_COMPOUND_CID>
3397993

> <PUBCHEM_CONFORMER_RMSD>
0.6

> <PUBCHEM_CONFORMER_DIVERSEORDER>
1
80
12
49
68
16
75
60
69
8
43
87
91
27
44
90
10
50
18
29
88
67
47
62
45
17
76
89
77
84
41
51
39
20
55
25
54
86
85
72
13
40
46
82
23
2
42
79
34
83
24
56
19
9
64
63
28
36
74
71
26
66
3
52
70
38
57
15
35
78
11
53
58
21
48
14
22
33
61
65
4
81
7
37
59
30
32
73
5
6
31

> <PUBCHEM_MMFF94_PARTIAL_CHARGES>
19
1 -0.08
10 0.28
11 0.57
12 0.1
13 -0.09
14 -0.18
15 -0.14
16 0.18
17 0.18
18 0.72
2 -0.56
26 0.37
3 -0.57
33 0.37
34 0.37
4 -0.57
5 -0.49
6 -0.8
7 0.34

> <PUBCHEM_EFFECTIVE_ROTOR_COUNT>
5

> <PUBCHEM_PHARMACOPHORE_FEATURES>
7
1 2 acceptor
1 3 acceptor
1 4 acceptor
1 5 donor
1 6 donor
5 1 12 13 14 15 rings
5 2 7 8 9 10 rings

> <PUBCHEM_HEAVY_ATOM_COUNT>
18

> <PUBCHEM_ATOM_DEF_STEREO_COUNT>
0

> <PUBCHEM_ATOM_UDEF_STEREO_COUNT>
1

> <PUBCHEM_BOND_DEF_STEREO_COUNT>
0

> <PUBCHEM_BOND_UDEF_STEREO_COUNT>
0

> <PUBCHEM_ISOTOPIC_ATOM_COUNT>
0

> <PUBCHEM_COMPONENT_COUNT>
1

> <PUBCHEM_CACTVS_TAUTO_COUNT>
7

> <PUBCHEM_CONFORMER_ID>
0033D96900000001

> <PUBCHEM_MMFF94_ENERGY>
44.8732

> <PUBCHEM_FEATURE_SELFOVERLAP>
35.537

> <PUBCHEM_SHAPE_FINGERPRINT>
10366900 7 18335984241863184185
10608611 8 18335695027387353645
10980938 120 18343578564143810996
11471102 20 18412822512348120276
12236239 1 17418374692668414437
12596602 18 17773617064550103035
12633257 1 18334848433277093986
13140716 1 18267017448172922442
13296908 3 18040437677023083887
13533116 47 18273497871471503475
13583140 156 16518181506215608692
13675066 3 18113905961880915657
14223421 5 18408321060204352357
14252887 29 18271811172714881318
14386348 63 17967537865620780523
14790565 3 17904209474442612212
15196674 1 18338233889724141769
15219456 202 18334293201675113745
15375358 24 18186795907358179481
15442244 35 18126004858272034329
15635459 17 18334579027411672771
17834074 16 18335140869247395507
18186145 218 18200317748496084260
19049666 15 18115581535533089613
19050596 39 18411980286477907177
19784866 170 18262240031295550525
19784866 9 18342457062484173664
200 152 18202275918633425557
20279233 1 18113900459732488303
204376 136 18195527214883055288
20645477 56 17967808311401355501
20645477 70 18341323423156858175
21065199 12 18335144206843296585
21421861 104 17824538574114135400
21673915 165 18194403531337859395
221490 88 18408609132435361418
22854114 111 18412260674759580108
23557571 272 16805594833505538117
23559900 14 18261948544580871531
26918003 58 18259982682610666977
2748010 2 17981875355518210260
33824 294 18409165540889794955
474 4 18268991054122759744
5104073 3 18337389456314891385
6049 1 18114747027703536933
633830 44 18129384954732130300
7364860 26 18342457023982117318
81228 2 17118874056065144888
81539 233 18337389439266851420
8272917 22 18272656718615432639
9709674 26 18409449163698488623
9999458 23 18335419097635051676

> <PUBCHEM_SHAPE_MULTIPOLES>
346.71
8.9
2.61
0.93
7.02
0.53
0.08
-1.31
1.54
-3.18
0.08
0.45
0.28
0.63

> <PUBCHEM_SHAPE_SELFOVERLAP>
720.365

> <PUBCHEM_SHAPE_VOLUME>
199.7

> <PUBCHEM_COORDINATE_TYPE>
2
5
10

$$$$
