1370924
  -OEChem-02101610513D

 36 38  0     0  0  0  0  0  0999 V2000
    0.1738   -2.7908    0.7805 S   0  0  0  0  0  0  0  0  0  0  0  0
   -3.7666    2.5911    0.1247 F   0  0  0  0  0  0  0  0  0  0  0  0
   -4.5291    0.7541    0.9896 F   0  0  0  0  0  0  0  0  0  0  0  0
   -2.6925    1.6321    1.7543 F   0  0  0  0  0  0  0  0  0  0  0  0
    0.8753   -4.0684    0.7709 O   0  0  0  0  0  0  0  0  0  0  0  0
   -0.5501   -2.3787    1.9770 O   0  0  0  0  0  0  0  0  0  0  0  0
   -0.8728   -2.7253   -0.5818 N   0  0  0  0  0  0  0  0  0  0  0  0
    1.3154   -1.5289    0.3902 C   0  0  0  0  0  0  0  0  0  0  0  0
    1.9847    0.8073    0.5011 C   0  0  0  0  0  0  0  0  0  0  0  0
    3.1520    0.5008   -0.2380 C   0  0  0  0  0  0  0  0  0  0  0  0
    1.0763   -0.2191    0.8071 C   0  0  0  0  0  0  0  0  0  0  0  0
    2.4634   -1.8303   -0.3365 C   0  0  0  0  0  0  0  0  0  0  0  0
   -1.3702   -1.3822   -0.9511 C   0  0  0  0  0  0  0  0  0  0  0  0
    3.3767   -0.8231   -0.6493 C   0  0  0  0  0  0  0  0  0  0  0  0
    1.7603    2.1311    0.9128 C   0  0  0  0  0  0  0  0  0  0  0  0
    4.0606    1.5272   -0.5435 C   0  0  0  0  0  0  0  0  0  0  0  0
   -2.1031   -0.6874   -0.0257 C   0  0  0  0  0  0  0  0  0  0  0  0
   -2.5720    0.5792   -0.3743 C   0  0  0  0  0  0  0  0  0  0  0  0
   -1.0715   -0.9037   -2.1994 C   0  0  0  0  0  0  0  0  0  0  0  0
    2.6738    3.1383    0.6003 C   0  0  0  0  0  0  0  0  0  0  0  0
    3.8216    2.8369   -0.1265 C   0  0  0  0  0  0  0  0  0  0  0  0
   -2.2907    1.1044   -1.6354 C   0  0  0  0  0  0  0  0  0  0  0  0
   -1.5403    0.3629   -2.5480 C   0  0  0  0  0  0  0  0  0  0  0  0
   -3.3749    1.3724    0.6012 C   0  0  0  0  0  0  0  0  0  0  0  0
    0.1950    0.0208    1.3972 H   0  0  0  0  0  0  0  0  0  0  0  0
   -0.6148   -3.3143   -1.3846 H   0  0  0  0  0  0  0  0  0  0  0  0
    2.6656   -2.8419   -0.6770 H   0  0  0  0  0  0  0  0  0  0  0  0
    4.2665   -1.0811   -1.2198 H   0  0  0  0  0  0  0  0  0  0  0  0
    0.8692    2.3899    1.4809 H   0  0  0  0  0  0  0  0  0  0  0  0
   -2.3621   -1.0993    0.9430 H   0  0  0  0  0  0  0  0  0  0  0  0
    4.9645    1.3146   -1.1106 H   0  0  0  0  0  0  0  0  0  0  0  0
   -0.4859   -1.4776   -2.9103 H   0  0  0  0  0  0  0  0  0  0  0  0
    2.4882    4.1582    0.9243 H   0  0  0  0  0  0  0  0  0  0  0  0
    4.5323    3.6215   -0.3697 H   0  0  0  0  0  0  0  0  0  0  0  0
   -2.6466    2.0893   -1.9252 H   0  0  0  0  0  0  0  0  0  0  0  0
   -1.3200    0.7721   -3.5297 H   0  0  0  0  0  0  0  0  0  0  0  0
  1  5  2  0  0  0  0
  1  6  2  0  0  0  0
  1  7  1  0  0  0  0
  1  8  1  0  0  0  0
  2 24  1  0  0  0  0
  3 24  1  0  0  0  0
  4 24  1  0  0  0  0
  7 13  1  0  0  0  0
  7 26  1  0  0  0  0
  8 11  2  0  0  0  0
  8 12  1  0  0  0  0
  9 10  1  0  0  0  0
  9 11  1  0  0  0  0
  9 15  2  0  0  0  0
 10 14  1  0  0  0  0
 10 16  2  0  0  0  0
 11 25  1  0  0  0  0
 12 14  2  0  0  0  0
 12 27  1  0  0  0  0
 13 17  1  0  0  0  0
 13 19  2  0  0  0  0
 14 28  1  0  0  0  0
 15 20  1  0  0  0  0
 15 29  1  0  0  0  0
 16 21  1  0  0  0  0
 16 31  1  0  0  0  0
 17 18  2  0  0  0  0
 17 30  1  0  0  0  0
 18 22  1  0  0  0  0
 18 24  1  0  0  0  0
 19 23  1  0  0  0  0
 19 32  1  0  0  0  0
 20 21  2  0  0  0  0
 20 33  1  0  0  0  0
 21 34  1  0  0  0  0
 22 23  2  0  0  0  0
 22 35  1  0  0  0  0
 23 36  1  0  0  0  0
M  END
> <PUBCHEM_COMPOUND_CID>
1370924

> <PUBCHEM_CONFORMER_RMSD>
0.8

> <PUBCHEM_CONFORMER_DIVERSEORDER>
1
20
10
25
22
8
30
2
12
19
3
31
11
28
13
4
32
6
29
18
7
9
24
33
5
14
27
23
34
16
17
21
15
26

> <PUBCHEM_MMFF94_PARTIAL_CHARGES>
34
1 1.45
11 -0.15
12 -0.15
13 0.2
14 -0.15
15 -0.15
16 -0.15
17 -0.15
18 -0.14
19 -0.15
2 -0.34
20 -0.15
21 -0.15
22 -0.15
23 -0.15
24 1.16
25 0.15
26 0.42
27 0.15
28 0.15
29 0.15
3 -0.34
30 0.15
31 0.15
32 0.15
33 0.15
34 0.15
35 0.15
36 0.15
4 -0.34
5 -0.65
6 -0.65
7 -0.76
8 -0.01

> <PUBCHEM_EFFECTIVE_ROTOR_COUNT>
4

> <PUBCHEM_PHARMACOPHORE_FEATURES>
6
1 5 acceptor
1 6 acceptor
1 7 donor
6 13 17 18 19 22 23 rings
6 8 9 10 11 12 14 rings
6 9 10 15 16 20 21 rings

> <PUBCHEM_HEAVY_ATOM_COUNT>
24

> <PUBCHEM_ATOM_DEF_STEREO_COUNT>
0

> <PUBCHEM_ATOM_UDEF_STEREO_COUNT>
0

> <PUBCHEM_BOND_DEF_STEREO_COUNT>
0

> <PUBCHEM_BOND_UDEF_STEREO_COUNT>
0

> <PUBCHEM_ISOTOPIC_ATOM_COUNT>
0

> <PUBCHEM_COMPONENT_COUNT>
1

> <PUBCHEM_CACTVS_TAUTO_COUNT>
1

> <PUBCHEM_CONFORMER_ID>
0014EB2C00000001

> <PUBCHEM_MMFF94_ENERGY>
56.6136

> <PUBCHEM_FEATURE_SELFOVERLAP>
30.49

> <PUBCHEM_SHAPE_FINGERPRINT>
10064457 181 18261405459041098438
10165383 225 18041578952638650478
10366900 7 17823986636778581191
11578080 2 14107470406681997323
12156800 1 16539402170551633969
12173636 292 18266738158933690805
12422481 6 13943236680878665234
12788726 201 17980184602687318731
128993 33 18334003991203866420
13140716 1 18409440389021982010
13464514 151 18340772628409212100
13583140 156 18191588545774468789
14123250 116 18270674401981880173
14142880 1 18044368568151476589
14386348 128 18261107465472513468
14713325 29 17903361751504032632
14787075 74 18051680333899672543
14955137 171 18118394043454557402
17357779 13 17040898336348890070
17980427 23 17915430918969863482
18219364 16 18115294592793947069
18981168 100 18265031652489240022
20465049 17 18199200502700046717
20510252 161 17903624521254922190
21041028 32 17400074176133300838
21524375 3 18188196680619166170
22182937 141 18266463294112206040
22907989 373 17542786860129435668
23419403 2 17336807405124013791
23557571 272 17541098006048141502
23559900 14 18341612664447367320
238 59 17828446264209191575
23845131 108 18333449859346201451
25 1 18410012105061877854
2637199 183 18201447947358929861
31174 14 18045218228995064303
350125 39 18334569191899881906
35225 105 17760969454714120481
469060 322 16445024464873888843
474 4 18410848854558209424
513532 50 10012756850252902395
57100710 29 17415818233586571749
6287921 2 17974860767480670844
6442390 28 18261684765022940643
7288768 16 18261671592247233840
81228 2 17534625116296569890
9981440 41 17483085517714053368
9999458 23 18337964376500285047

> <PUBCHEM_SHAPE_MULTIPOLES>
459.22
6.74
3.98
1.72
1.03
1.72
0.62
-6.23
-0.07
0.69
-1.43
-1.37
0.04
-0.22

> <PUBCHEM_SHAPE_SELFOVERLAP>
999.833

> <PUBCHEM_SHAPE_VOLUME>
253.6

> <PUBCHEM_COORDINATE_TYPE>
2
5
10

$$$$
