5458199
  -OEChem-02101610533D

 68 72  0     0  0  0  0  0  0999 V2000
    0.9320    1.9964   -0.9769 O   0  0  0  0  0  0  0  0  0  0  0  0
   -1.5100    1.5242   -1.3560 O   0  0  0  0  0  0  0  0  0  0  0  0
    3.3437    2.4577   -0.6005 O   0  0  0  0  0  0  0  0  0  0  0  0
    7.1702    1.1397    0.3526 O   0  0  0  0  0  0  0  0  0  0  0  0
   -4.0291   -0.2265   -2.6279 O   0  0  0  0  0  0  0  0  0  0  0  0
    5.8051    2.8383   -0.1995 O   0  0  0  0  0  0  0  0  0  0  0  0
   -4.9439   -4.0538    0.3618 O   0  0  0  0  0  0  0  0  0  0  0  0
   -3.5943   -2.6143    1.4843 O   0  0  0  0  0  0  0  0  0  0  0  0
    9.5399    0.4090    0.9255 O   0  0  0  0  0  0  0  0  0  0  0  0
   -6.4156    0.8126   -1.7377 O   0  0  0  0  0  0  0  0  0  0  0  0
    9.0044   -1.8247    1.2130 O   0  0  0  0  0  0  0  0  0  0  0  0
   -7.4889   -1.1218    0.9107 O   0  0  0  0  0  0  0  0  0  0  0  0
    0.0675   -0.2217   -0.7533 C   0  0  0  0  0  0  0  0  0  0  0  0
    0.2862   -1.5881   -0.4738 C   0  0  0  0  0  0  0  0  0  0  0  0
    2.4471    0.2343   -0.3828 C   0  0  0  0  0  0  0  0  0  0  0  0
    2.6653   -1.1315   -0.1034 C   0  0  0  0  0  0  0  0  0  0  0  0
    1.1508    0.6713   -0.7041 C   0  0  0  0  0  0  0  0  0  0  0  0
    1.5820   -2.0249   -0.1520 C   0  0  0  0  0  0  0  0  0  0  0  0
   -1.2284    0.2149   -1.0750 C   0  0  0  0  0  0  0  0  0  0  0  0
   -2.0779   -2.0314   -0.8440 C   0  0  0  0  0  0  0  0  0  0  0  0
   -2.2933   -0.6849   -1.1198 C   0  0  0  0  0  0  0  0  0  0  0  0
   -0.7972   -2.4812   -0.5227 C   0  0  0  0  0  0  0  0  0  0  0  0
    3.5295    1.1290   -0.3342 C   0  0  0  0  0  0  0  0  0  0  0  0
    3.9612   -1.5705    0.2179 C   0  0  0  0  0  0  0  0  0  0  0  0
    4.8150    0.6767   -0.0124 C   0  0  0  0  0  0  0  0  0  0  0  0
    5.0347   -0.6730    0.2640 C   0  0  0  0  0  0  0  0  0  0  0  0
   -3.1976   -3.0202   -0.8839 C   0  0  0  0  0  0  0  0  0  0  0  0
    6.3752   -1.1318    0.5965 C   0  0  0  0  0  0  0  0  0  0  0  0
   -3.6358   -0.2187   -1.4554 C   0  0  0  0  0  0  0  0  0  0  0  0
    5.9396    1.6439    0.0320 C   0  0  0  0  0  0  0  0  0  0  0  0
    7.3564   -0.2262    0.6245 C   0  0  0  0  0  0  0  0  0  0  0  0
   -3.9035   -3.1834    0.4465 C   0  0  0  0  0  0  0  0  0  0  0  0
    0.5972    2.8300    0.1261 C   0  0  0  0  0  0  0  0  0  0  0  0
   -4.5344    0.2326   -0.3392 C   0  0  0  0  0  0  0  0  0  0  0  0
   -1.4088    1.9246   -2.7182 C   0  0  0  0  0  0  0  0  0  0  0  0
    8.7107   -0.6660    0.9563 C   0  0  0  0  0  0  0  0  0  0  0  0
   -5.7928    0.6775   -0.5146 C   0  0  0  0  0  0  0  0  0  0  0  0
   -6.6262    1.1028    0.6273 C   0  0  0  0  0  0  0  0  0  0  0  0
   -7.4323    0.1884    1.2846 C   0  0  0  0  0  0  0  0  0  0  0  0
   -6.5768    2.4319    1.0159 C   0  0  0  0  0  0  0  0  0  0  0  0
   -8.2108    0.6144    2.3609 C   0  0  0  0  0  0  0  0  0  0  0  0
   -7.3555    2.8577    2.0921 C   0  0  0  0  0  0  0  0  0  0  0  0
   -8.1724    1.9490    2.7644 C   0  0  0  0  0  0  0  0  0  0  0  0
   10.9117    0.1376    1.2307 C   0  0  0  0  0  0  0  0  0  0  0  0
    1.7507   -3.0800    0.0641 H   0  0  0  0  0  0  0  0  0  0  0  0
   -0.6360   -3.5359   -0.3052 H   0  0  0  0  0  0  0  0  0  0  0  0
    4.1326   -2.6245    0.4339 H   0  0  0  0  0  0  0  0  0  0  0  0
   -3.9384   -2.7561   -1.6460 H   0  0  0  0  0  0  0  0  0  0  0  0
   -2.8050   -4.0045   -1.1704 H   0  0  0  0  0  0  0  0  0  0  0  0
    6.5287   -2.1840    0.8080 H   0  0  0  0  0  0  0  0  0  0  0  0
    4.1728    2.8712   -0.8851 H   0  0  0  0  0  0  0  0  0  0  0  0
   -0.3360    2.5153    0.6033 H   0  0  0  0  0  0  0  0  0  0  0  0
    0.4676    3.8508   -0.2446 H   0  0  0  0  0  0  0  0  0  0  0  0
    1.3854    2.8355    0.8852 H   0  0  0  0  0  0  0  0  0  0  0  0
   -4.1102    0.1757    0.6605 H   0  0  0  0  0  0  0  0  0  0  0  0
   -0.6186    1.3844   -3.2508 H   0  0  0  0  0  0  0  0  0  0  0  0
   -1.1790    2.9936   -2.7456 H   0  0  0  0  0  0  0  0  0  0  0  0
   -2.3644    1.7688   -3.2257 H   0  0  0  0  0  0  0  0  0  0  0  0
   -5.4026   -4.1593    1.2225 H   0  0  0  0  0  0  0  0  0  0  0  0
   -5.9453    3.1507    0.5004 H   0  0  0  0  0  0  0  0  0  0  0  0
   -7.3132    1.1594   -1.5965 H   0  0  0  0  0  0  0  0  0  0  0  0
   -8.8521   -0.0820    2.8945 H   0  0  0  0  0  0  0  0  0  0  0  0
   -7.3258    3.8969    2.4063 H   0  0  0  0  0  0  0  0  0  0  0  0
   -8.7787    2.2808    3.6023 H   0  0  0  0  0  0  0  0  0  0  0  0
   11.4659    1.0781    1.1714 H   0  0  0  0  0  0  0  0  0  0  0  0
   11.3300   -0.5635    0.5021 H   0  0  0  0  0  0  0  0  0  0  0  0
   11.0019   -0.2605    2.2459 H   0  0  0  0  0  0  0  0  0  0  0  0
   -8.1068   -1.5937    1.4949 H   0  0  0  0  0  0  0  0  0  0  0  0
  1 17  1  0  0  0  0
  1 33  1  0  0  0  0
  2 19  1  0  0  0  0
  2 35  1  0  0  0  0
  3 23  1  0  0  0  0
  3 51  1  0  0  0  0
  4 30  1  0  0  0  0
  4 31  1  0  0  0  0
  5 29  2  0  0  0  0
  6 30  2  0  0  0  0
  7 32  1  0  0  0  0
  7 59  1  0  0  0  0
  8 32  2  0  0  0  0
  9 36  1  0  0  0  0
  9 44  1  0  0  0  0
 10 37  1  0  0  0  0
 10 61  1  0  0  0  0
 11 36  2  0  0  0  0
 12 39  1  0  0  0  0
 12 68  1  0  0  0  0
 13 14  1  0  0  0  0
 13 17  1  0  0  0  0
 13 19  2  0  0  0  0
 14 18  1  0  0  0  0
 14 22  2  0  0  0  0
 15 16  1  0  0  0  0
 15 17  2  0  0  0  0
 15 23  1  0  0  0  0
 16 18  2  0  0  0  0
 16 24  1  0  0  0  0
 18 45  1  0  0  0  0
 19 21  1  0  0  0  0
 20 21  2  0  0  0  0
 20 22  1  0  0  0  0
 20 27  1  0  0  0  0
 21 29  1  0  0  0  0
 22 46  1  0  0  0  0
 23 25  2  0  0  0  0
 24 26  2  0  0  0  0
 24 47  1  0  0  0  0
 25 26  1  0  0  0  0
 25 30  1  0  0  0  0
 26 28  1  0  0  0  0
 27 32  1  0  0  0  0
 27 48  1  0  0  0  0
 27 49  1  0  0  0  0
 28 31  2  0  0  0  0
 28 50  1  0  0  0  0
 29 34  1  0  0  0  0
 31 36  1  0  0  0  0
 33 52  1  0  0  0  0
 33 53  1  0  0  0  0
 33 54  1  0  0  0  0
 34 37  2  0  0  0  0
 34 55  1  0  0  0  0
 35 56  1  0  0  0  0
 35 57  1  0  0  0  0
 35 58  1  0  0  0  0
 37 38  1  0  0  0  0
 38 39  1  0  0  0  0
 38 40  2  0  0  0  0
 39 41  2  0  0  0  0
 40 42  1  0  0  0  0
 40 60  1  0  0  0  0
 41 43  1  0  0  0  0
 41 62  1  0  0  0  0
 42 43  2  0  0  0  0
 42 63  1  0  0  0  0
 43 64  1  0  0  0  0
 44 65  1  0  0  0  0
 44 66  1  0  0  0  0
 44 67  1  0  0  0  0
M  END
> <PUBCHEM_COMPOUND_CID>
5458199

> <PUBCHEM_CONFORMER_RMSD>
1.2

> <PUBCHEM_CONFORMER_DIVERSEORDER>
1
7
12
10
4
9
14
13
5
6
11
3
8
2

> <PUBCHEM_MMFF94_PARTIAL_CHARGES>
53
1 -0.36
10 -0.53
11 -0.57
12 -0.53
17 0.08
18 -0.15
19 0.08
2 -0.36
20 -0.14
21 0.09
22 -0.15
23 0.08
24 -0.15
25 0.09
26 0.03
27 0.2
28 -0.18
29 0.47
3 -0.53
30 0.63
31 0.09
32 0.66
33 0.28
34 -0.14
35 0.28
36 0.71
37 0.05
38 0.03
39 0.08
4 -0.23
40 -0.15
41 -0.15
42 -0.15
43 -0.15
44 0.28
45 0.15
46 0.15
47 0.15
5 -0.57
50 0.15
51 0.45
55 0.15
59 0.5
6 -0.57
60 0.15
61 0.45
62 0.15
63 0.15
64 0.15
68 0.45
7 -0.65
8 -0.57
9 -0.43

> <PUBCHEM_EFFECTIVE_ROTOR_COUNT>
9

> <PUBCHEM_PHARMACOPHORE_FEATURES>
16
1 1 acceptor
1 10 donor
1 11 acceptor
1 12 donor
1 2 acceptor
1 3 donor
1 5 acceptor
1 6 acceptor
1 7 acceptor
1 8 acceptor
3 7 8 32 anion
6 13 14 15 16 17 18 rings
6 13 14 19 20 21 22 rings
6 15 16 23 24 25 26 rings
6 38 39 40 41 42 43 rings
6 4 25 26 28 30 31 rings

> <PUBCHEM_HEAVY_ATOM_COUNT>
44

> <PUBCHEM_ATOM_DEF_STEREO_COUNT>
0

> <PUBCHEM_ATOM_UDEF_STEREO_COUNT>
0

> <PUBCHEM_BOND_DEF_STEREO_COUNT>
1

> <PUBCHEM_BOND_UDEF_STEREO_COUNT>
0

> <PUBCHEM_ISOTOPIC_ATOM_COUNT>
0

> <PUBCHEM_COMPONENT_COUNT>
1

> <PUBCHEM_CACTVS_TAUTO_COUNT>
623

> <PUBCHEM_CONFORMER_ID>
0053491700000001

> <PUBCHEM_MMFF94_ENERGY>
180.7027

> <PUBCHEM_FEATURE_SELFOVERLAP>
81.355

> <PUBCHEM_SHAPE_FINGERPRINT>
10190108 129 17748828493186620698
10533779 1 17273706343693669385
10906281 52 18272375282114034559
11135926 11 18335410253796846478
11181472 205 16056606405001086770
11456790 92 18342737412580555200
11497681 19 11818995170985452513
11578821 258 17488448858557970232
12124843 1 10591467341207942665
13383668 254 16916491679858158184
13782708 43 13984664767664233861
13811026 1 18334008406340498007
14849402 71 18341617066093182681
15064986 96 18131360695533895598
15131766 46 15191867070233806104
15392192 29 18409730673398720350
18608769 82 18187357745247666478
19246450 95 18341058479842313219
19315958 150 17775289322756640062
19611394 137 17312829289884283005
20105231 36 17821729399937830490
20721686 146 16773238362886116113
21130935 74 18337948013281997018
21756936 100 18060701689756640895
21781055 127 18130521760273093788
21792965 68 17346605170656164258
21867018 265 9511461104841624075
22899556 56 18129957762717027667
23522609 53 17971214717902737452
23576562 1 12246805254613020089
24771293 8 18130784538370571493
3178227 256 18260552208164221584
335352 9 18336533985135055934
4093350 32 17203613640625005518
5104073 3 18262790886573333914
6201460 15 13122276124386058737
6691757 9 18412256238765278047

> <PUBCHEM_SHAPE_MULTIPOLES>
835.07
29.14
3.44
1.89
33.12
1.24
0.13
-9.86
-22.06
-4.35
-0.54
-3.92
-0.81
-2.67

> <PUBCHEM_SHAPE_SELFOVERLAP>
1871.693

> <PUBCHEM_SHAPE_VOLUME>
439

> <PUBCHEM_COORDINATE_TYPE>
2
5
10

$$$$
