5358951
  -OEChem-02101610533D

 52 56  0     1  0  0  0  0  0999 V2000
   -1.2906    2.1094    2.1497 O   0  0  0  0  0  0  0  0  0  0  0  0
   -1.3857   -1.1258   -2.1203 O   0  0  0  0  0  0  0  0  0  0  0  0
   -0.1825   -0.0062   -0.4952 N   0  0  0  0  0  0  0  0  0  0  0  0
    1.5474   -1.4799   -1.2626 N   0  0  0  0  0  0  0  0  0  0  0  0
   -2.4947    0.7864    0.7130 N   0  0  0  0  0  0  0  0  0  0  0  0
   -6.1260   -0.3799   -0.9818 N   0  0  0  0  0  0  0  0  0  0  0  0
   -6.8728    0.0561    1.0639 N   0  0  0  0  0  0  0  0  0  0  0  0
    2.1164    0.5888   -0.1185 C   0  0  2  0  0  0  0  0  0  0  0  0
    1.1336   -0.0872   -1.1294 C   0  0  2  0  0  0  0  0  0  0  0  0
    1.1941    1.2821    0.8992 C   0  0  0  0  0  0  0  0  0  0  0  0
    3.0803    1.5610   -0.7940 C   0  0  0  0  0  0  0  0  0  0  0  0
   -0.0926    0.4603    0.8733 C   0  0  1  0  0  0  0  0  0  0  0  0
    2.8469   -0.6064    0.4413 C   0  0  0  0  0  0  0  0  0  0  0  0
    2.4625   -1.7561   -0.2543 C   0  0  0  0  0  0  0  0  0  0  0  0
    3.7857    0.8386   -1.9611 C   0  0  0  0  0  0  0  0  0  0  0  0
    2.2773    2.7493   -1.3636 C   0  0  0  0  0  0  0  0  0  0  0  0
   -1.3179    1.2542    1.2652 C   0  0  0  0  0  0  0  0  0  0  0  0
    4.1598    2.1257    0.1250 C   0  0  0  0  0  0  0  0  0  0  0  0
   -1.3397   -0.4987   -1.0647 C   0  0  0  0  0  0  0  0  0  0  0  0
    3.7804   -0.6623    1.4645 C   0  0  0  0  0  0  0  0  0  0  0  0
    3.0332   -2.9827    0.0382 C   0  0  0  0  0  0  0  0  0  0  0  0
   -2.5775   -0.1160   -0.3199 C   0  0  0  0  0  0  0  0  0  0  0  0
    4.3420   -1.9002    1.7799 C   0  0  0  0  0  0  0  0  0  0  0  0
    3.9734   -3.0523    1.0694 C   0  0  0  0  0  0  0  0  0  0  0  0
    5.4860    2.0047   -0.0134 C   0  0  0  0  0  0  0  0  0  0  0  0
   -3.7585   -0.5962   -0.7315 C   0  0  0  0  0  0  0  0  0  0  0  0
   -5.0592   -0.3535   -0.1604 C   0  0  0  0  0  0  0  0  0  0  0  0
   -5.5082   -0.0890    1.0807 C   0  0  0  0  0  0  0  0  0  0  0  0
   -7.2131   -0.1245   -0.1929 C   0  0  0  0  0  0  0  0  0  0  0  0
    1.0401    0.3707   -2.1171 H   0  0  0  0  0  0  0  0  0  0  0  0
    0.9438    2.3133    0.6431 H   0  0  0  0  0  0  0  0  0  0  0  0
    1.6168    1.3117    1.9102 H   0  0  0  0  0  0  0  0  0  0  0  0
   -0.0234   -0.4196    1.5246 H   0  0  0  0  0  0  0  0  0  0  0  0
    0.9866   -2.1919   -1.7072 H   0  0  0  0  0  0  0  0  0  0  0  0
    4.4507    1.5218   -2.5071 H   0  0  0  0  0  0  0  0  0  0  0  0
    4.3920   -0.0192   -1.6498 H   0  0  0  0  0  0  0  0  0  0  0  0
    3.0865    0.4818   -2.7238 H   0  0  0  0  0  0  0  0  0  0  0  0
    2.0167    3.4941   -0.6032 H   0  0  0  0  0  0  0  0  0  0  0  0
    1.3609    2.4591   -1.8840 H   0  0  0  0  0  0  0  0  0  0  0  0
    2.8839    3.2964   -2.0981 H   0  0  0  0  0  0  0  0  0  0  0  0
    3.8038    2.6936    0.9838 H   0  0  0  0  0  0  0  0  0  0  0  0
    4.0603    0.2132    2.0382 H   0  0  0  0  0  0  0  0  0  0  0  0
    2.7588   -3.8761   -0.5131 H   0  0  0  0  0  0  0  0  0  0  0  0
   -3.3512    1.1932    1.0724 H   0  0  0  0  0  0  0  0  0  0  0  0
    5.0709   -1.9741    2.5824 H   0  0  0  0  0  0  0  0  0  0  0  0
    4.4261   -4.0071    1.3227 H   0  0  0  0  0  0  0  0  0  0  0  0
    6.1406    2.4642    0.7212 H   0  0  0  0  0  0  0  0  0  0  0  0
    5.9707    1.4664   -0.8169 H   0  0  0  0  0  0  0  0  0  0  0  0
   -3.7703   -1.2508   -1.6026 H   0  0  0  0  0  0  0  0  0  0  0  0
   -6.1394   -0.5509   -1.9794 H   0  0  0  0  0  0  0  0  0  0  0  0
   -4.9598   -0.0036    2.0077 H   0  0  0  0  0  0  0  0  0  0  0  0
   -8.2163   -0.0845   -0.5931 H   0  0  0  0  0  0  0  0  0  0  0  0
  1 17  2  0  0  0  0
  2 19  2  0  0  0  0
  3  9  1  0  0  0  0
  3 12  1  0  0  0  0
  3 19  1  0  0  0  0
  4  9  1  0  0  0  0
  4 14  1  0  0  0  0
  4 34  1  0  0  0  0
  5 17  1  0  0  0  0
  5 22  1  0  0  0  0
  5 44  1  0  0  0  0
  6 27  1  0  0  0  0
  6 29  1  0  0  0  0
  6 50  1  0  0  0  0
  7 28  1  0  0  0  0
  7 29  2  0  0  0  0
  8  9  1  0  0  0  0
  8 10  1  0  0  0  0
  8 11  1  0  0  0  0
  8 13  1  0  0  0  0
  9 30  1  0  0  0  0
 10 12  1  0  0  0  0
 10 31  1  0  0  0  0
 10 32  1  0  0  0  0
 11 15  1  0  0  0  0
 11 16  1  0  0  0  0
 11 18  1  0  0  0  0
 12 17  1  0  0  0  0
 12 33  1  0  0  0  0
 13 14  1  0  0  0  0
 13 20  2  0  0  0  0
 14 21  2  0  0  0  0
 15 35  1  0  0  0  0
 15 36  1  0  0  0  0
 15 37  1  0  0  0  0
 16 38  1  0  0  0  0
 16 39  1  0  0  0  0
 16 40  1  0  0  0  0
 18 25  2  0  0  0  0
 18 41  1  0  0  0  0
 19 22  1  0  0  0  0
 20 23  1  0  0  0  0
 20 42  1  0  0  0  0
 21 24  1  0  0  0  0
 21 43  1  0  0  0  0
 22 26  2  0  0  0  0
 23 24  2  0  0  0  0
 23 45  1  0  0  0  0
 24 46  1  0  0  0  0
 25 47  1  0  0  0  0
 25 48  1  0  0  0  0
 26 27  1  0  0  0  0
 26 49  1  0  0  0  0
 27 28  2  0  0  0  0
 28 51  1  0  0  0  0
 29 52  1  0  0  0  0
M  END
> <PUBCHEM_COMPOUND_CID>
5358951

> <PUBCHEM_CONFORMER_RMSD>
0.8

> <PUBCHEM_CONFORMER_DIVERSEORDER>
1
20
7
19
8
13
18
14
2
15
6
9
11
10
12
16
4
5
17
3

> <PUBCHEM_MMFF94_PARTIAL_CHARGES>
39
1 -0.57
11 0.14
12 0.36
13 -0.14
14 0.1
17 0.57
18 -0.29
19 0.62
2 -0.57
20 -0.15
21 -0.15
22 0.12
23 -0.15
24 -0.15
25 -0.3
26 -0.11
27 -0.2
28 0.08
29 0.04
3 -0.66
34 0.4
4 -0.87
41 0.15
42 0.15
43 0.15
44 0.37
45 0.15
46 0.15
47 0.15
48 0.15
49 0.15
5 -0.54
50 0.27
51 0.15
52 0.15
6 0.03
7 -0.57
8 0.14
9 0.67

> <PUBCHEM_EFFECTIVE_ROTOR_COUNT>
3.6

> <PUBCHEM_PHARMACOPHORE_FEATURES>
14
1 1 acceptor
1 2 acceptor
1 25 hydrophobe
1 4 cation
1 4 donor
1 5 donor
1 6 donor
3 11 15 16 hydrophobe
3 6 7 29 cation
5 3 8 9 10 12 rings
5 4 8 9 13 14 rings
5 6 7 27 28 29 rings
6 13 14 20 21 23 24 rings
6 3 5 12 17 19 22 rings

> <PUBCHEM_HEAVY_ATOM_COUNT>
29

> <PUBCHEM_ATOM_DEF_STEREO_COUNT>
0

> <PUBCHEM_ATOM_UDEF_STEREO_COUNT>
3

> <PUBCHEM_BOND_DEF_STEREO_COUNT>
1

> <PUBCHEM_BOND_UDEF_STEREO_COUNT>
0

> <PUBCHEM_ISOTOPIC_ATOM_COUNT>
0

> <PUBCHEM_COMPONENT_COUNT>
1

> <PUBCHEM_CACTVS_TAUTO_COUNT>
6

> <PUBCHEM_CONFORMER_ID>
0051C56700000001

> <PUBCHEM_MMFF94_ENERGY>
116.9806

> <PUBCHEM_FEATURE_SELFOVERLAP>
71.797

> <PUBCHEM_SHAPE_FINGERPRINT>
10554248 39 18270955749027451005
12236239 1 18272372009327991917
12422481 6 17630334039161569473
12553582 1 17418087728686862125
12616971 3 18412255130563469287
12730499 353 18041009486934880652
12788726 201 17775013375212571913
13009979 54 18057889031079269426
13140716 1 17416384662226223323
13533116 47 18260831475306397611
13782708 43 17822290150741544843
13955234 65 18260264178972458896
14863182 85 17704070660222207486
15183329 4 17704357663507344137
15238133 3 17989485229838771539
15250474 111 18271231833631099807
15439362 3 17836645602055939792
15475509 35 16660912289008977834
1577012 14 18272936025540909369
17349148 13 18271805683609364483
17492 89 18268429023234233034
17844677 252 17967250863295583581
17909252 39 16443896159837972019
1813 80 18192714437133899678
19319366 153 18341890831138996678
19377110 9 18201723933578569745
20642791 35 17346033510124354120
20771845 171 17313111861121535654
21344244 78 18340753867628443728
21421861 104 18343300349385095974
21792964 463 18116740485008768109
21814621 53 17748829580087802665
22149856 69 13768209347276223805
2303208 19 16805614659755051779
23081809 10 18272651247628788199
23559900 14 18187650231781928971
239999 70 17167861967464233146
24771293 8 16199854159859177161
25147074 1 18200327519256552256
25222932 49 18126009505849057639
3004659 81 18343306946433549367
3178227 256 18041273370749446396
34797466 226 13254793556331720115
3680242 22 18131354077395025555
4072396 5 17703506615289138199
4340502 62 18114465651189365923
46194498 28 17167863045780820654
5104073 3 18261396598993429153
57527295 17 16734951112847646202
70251023 43 17896879859722463826
7164475 11 18269558251814764969
8272917 22 18334012817714951046
8509985 295 18060134341176375015

> <PUBCHEM_SHAPE_MULTIPOLES>
560.16
13.85
2.66
1.7
26.89
0.77
0.02
1.07
1.68
-5.71
0.24
-0.18
-0.15
-1.64

> <PUBCHEM_SHAPE_SELFOVERLAP>
1256.12

> <PUBCHEM_SHAPE_VOLUME>
296.9

> <PUBCHEM_COORDINATE_TYPE>
2
5
10

$$$$
